
**** 05/26/13 21:52:55 ********* PSpice 9.2 (Mar 2000) ******** ID# 1 ********

 ** Profile: "SCHEMATIC1-2"  [ G:\43FZ\paralel-schematic1-2.sim ] 


 ****     CIRCUIT DESCRIPTION


******************************************************************************




** Creating circuit file "paralel-schematic1-2.sim.cir" 
** WARNING: THIS AUTOMATICALLY GENERATED FILE MAY BE OVERWRITTEN BY SUBSEQUENT SIMULATIONS

*Libraries: 
* Local Libraries :
* From [PSPICE NETLIST] section of g:\program files\Orcad\PSpice\PSpice.ini file:
.lib "nom.lib" 

*Analysis directives: 
.TRAN 1u 25ms 12ms 1u 
.OPTIONS NOBIAS
.OPTIONS NOMOD
.OPTIONS NOOUTMSG
.OPTIONS ITL4= 100
.OPTIONS NUMDGT= 10
.OPTIONS WIDTH= 132
.PROBE V(*) I(*) W(*) D(*) NOISE(*) 
.INC ".\paralel-SCHEMATIC1.net" 



**** INCLUDING paralel-SCHEMATIC1.net ****
* source PARALEL
R_R2         0 N50597  1MEG  
X_S4    N241303 0 N27236 N241265 SCHEMATIC1_S4 
X_S2    N236610 0 N27236 N235437 SCHEMATIC1_S2 
R_RB1         0 SHIM  3.33333  
E_DIFF3         N241303 0 VALUE {V(N257386,N254383)}
R_RB2         0 N235437  4  
E_E1         N62053 0 VALUE {
+  if(I(V_V1)<138.9473,(-25.641*log((139.2857-I(V_V1))/139.2857))/-1.204+128.2051,0)
+  }
R_RB3         0 N239113  4  
C_CN         N40356 RN1  0.001  
L_L2         N64666 RN1  5uH  
C_CF         N00729 N27236  0.009  
V_V4         N236610 0   0.1
R_R4         0 N254383  1MEG  
R_RK2         N234987 N64666  0.02630  
R_RCN         0 N40356  0.02171  
V_V3         N50597 0 DC 0.01 AC 1
+PULSE 0 0.8 0 0.0098m 0.0001m 0.01m 0.01m
R_RCF         N00729 0  6.51419e-3  
X_S3    N239167 0 N27236 N239113 SCHEMATIC1_S3 
V_V5         N239167 0   0.1
L_L1         N134688 N27236  5uH  
V_V6         N257386 0   0.7
X_S1    N27337 0 N27236 SHIM SCHEMATIC1_S1 
R_RDN         0 N27236  40  
E_DIFF1         N50582 0 VALUE {V(N08877,N27236)}
V_V2         N254251 0   1
V_V1         N62053 N134650 DC 0 AC 1 0
R_RB4         0 N241265  4  
V_Unom         N08877 0   100
R_R3         0 N254251  1MEG  
R_RA         0 RN1  3.3  
R_RK1         N134688 N134650  0.02630  
E_DIFF2         N27337 0 VALUE {V(N50597,N50582)}
R_R5         0 N257386  1MEG  
X_SwStart         N27236 N234987 Sw_tClose PARAMS: tClose=14m ttran=1u
+  Rclosed=1u Ropen=1MEG
X_U1         N254383 N254251 Sw_tClose PARAMS: tClose=14m ttran=1u Rclosed=0.01
+  Ropen=1Meg
R_R1         0 N08877  1MEG  
.IC         V(N134650 )=5
.PRINT         TRAN V([N27236]) I(R_RB1) I(R_RK1) I(R_RK2)

.subckt SCHEMATIC1_S4 1 2 3 4  
S_S4         3 4 1 2 _S4
RS_S4         1 2 1G
.MODEL         _S4 VSWITCH Roff=1e4 Ron=1m Voff=-1e-4 Von=1e-4
.ends SCHEMATIC1_S4

.subckt SCHEMATIC1_S2 1 2 3 4  
S_S2         3 4 1 2 _S2
RS_S2         1 2 1G
.MODEL         _S2 VSWITCH Roff=1e4 Ron=0.1m Voff=-1e-4 Von=1e-4
.ends SCHEMATIC1_S2

.subckt SCHEMATIC1_S3 1 2 3 4  
S_S3         3 4 1 2 _S3
RS_S3         1 2 1G
.MODEL         _S3 VSWITCH Roff=1e4 Ron=1m Voff=-1e-4 Von=1e-4
.ends SCHEMATIC1_S3

.subckt SCHEMATIC1_S1 1 2 3 4  
S_S1         3 4 1 2 _S1
RS_S1         1 2 1G
.MODEL         _S1 VSWITCH Roff=1e4 Ron=1m Voff=-1e-4 Von=1e-4
.ends SCHEMATIC1_S1

**** RESUMING paralel-schematic1-2.sim.cir ****
.END

WARNING -- Pulse Period < (Rise Time + Fall Time + Pulse Width) for V_V3
WARNING -- Pulse Period < (Rise Time + Fall Time + Pulse Width) for V_V3
**** 05/26/13 21:52:55 ********* PSpice 9.2 (Mar 2000) ******** ID# 1 ********

 ** Profile: "SCHEMATIC1-2"  [ G:\43FZ\paralel-schematic1-2.sim ] 


 ****     TRANSIENT ANALYSIS               TEMPERATURE =   27.000 DEG C


******************************************************************************



  TIME              V(N27236)         I(R_RB1)          I(R_RK1)          I(R_RK2)          

   1.200000000E-02   9.980820445E+01  -9.977494342E-03  -9.812378994E+01   9.980788261E-05
   1.200100000E-02   9.981031676E+01  -9.977705995E-03  -9.809619534E+01   9.981003483E-05
   1.200200000E-02   9.981245232E+01  -9.977919199E-03  -9.807103338E+01   9.981216605E-05
   1.200300000E-02   9.975491289E+01  -9.145171442E+00  -9.805371640E+01   9.975463032E-05
   1.200400000E-02   9.967350837E+01  -2.179306913E+01  -9.805135723E+01   9.967322343E-05
   1.200500000E-02   9.962103703E+01  -2.981479107E+01  -9.806194327E+01   9.962075394E-05
   1.200600000E-02   9.961973535E+01  -2.987698772E+01  -9.807653458E+01   9.961945034E-05
   1.200700000E-02   9.961882773E+01  -2.987671696E+01  -9.808982499E+01   9.961854834E-05
   1.200800000E-02   9.961792005E+01  -2.987644240E+01  -9.810192456E+01   9.961763191E-05
   1.200900000E-02   9.961700396E+01  -2.987616755E+01  -9.811295813E+01   9.961671451E-05
   1.201000000E-02   9.971299808E+01  -1.496986398E+01  -9.811920298E+01   9.971270608E-05
   1.201100000E-02   9.981207596E+01  -9.977881598E-03  -9.809192708E+01   9.981179062E-05
   1.201200000E-02   9.981235581E+01  -2.935052520E-01  -9.806711067E+01   9.981207186E-05
   1.201300000E-02   9.975510004E+01  -9.381099313E+00  -9.805019114E+01   9.975481663E-05
   1.201400000E-02   9.967351031E+01  -2.205399260E+01  -9.804817584E+01   9.967322402E-05
   1.201500000E-02   9.963020613E+01  -2.866766516E+01  -9.805822117E+01   9.962991819E-05
   1.201600000E-02   9.962152408E+01  -2.987752458E+01  -9.807215748E+01   9.962124463E-05
   1.201700000E-02   9.962061869E+01  -2.987725246E+01  -9.808556154E+01   9.962033681E-05
   1.201800000E-02   9.961971101E+01  -2.987697978E+01  -9.809775766E+01   9.961942535E-05
   1.201900000E-02   9.961879206E+01  -2.987670425E+01  -9.810887943E+01   9.961850529E-05
   1.202000000E-02   9.971516837E+01  -1.491203321E+01  -9.811528566E+01   9.971487699E-05
   1.202100000E-02   9.981387058E+01  -9.978061228E-03  -9.808809904E+01   9.981357936E-05
   1.202200000E-02   9.981289344E+01  -4.851833115E-01  -9.806344059E+01   9.981260859E-05
   1.202300000E-02   9.975506826E+01  -9.657275763E+00  -9.804684108E+01   9.975478485E-05
   1.202400000E-02   9.967347853E+01  -2.232596619E+01  -9.804517712E+01   9.967319733E-05
   1.202500000E-02   9.963140887E+01  -2.874678285E+01  -9.805540933E+01   9.963112373E-05
   1.202600000E-02   9.962323297E+01  -2.987803572E+01  -9.806936288E+01   9.962294928E-05
   1.202700000E-02   9.962232732E+01  -2.987776353E+01  -9.808273762E+01   9.962203902E-05
   1.202800000E-02   9.962141430E+01  -2.987749084E+01  -9.809490278E+01   9.962112757E-05
   1.202900000E-02   9.962049366E+01  -2.987721549E+01  -9.810598660E+01   9.962020811E-05
   1.203000000E-02   9.971634479E+01  -1.499310425E+01  -9.811238661E+01   9.971605463E-05
   1.203100000E-02   9.981557276E+01  -9.978231743E-03  -9.808515239E+01   9.981529003E-05
   1.203200000E-02   9.981341007E+01  -6.672472561E-01  -9.806060336E+01   9.981312752E-05
   1.203300000E-02   9.975511475E+01  -9.908125360E+00  -9.804425121E+01   9.975483124E-05
   1.203400000E-02   9.967346954E+01  -2.258109113E+01  -9.804284900E+01   9.967318834E-05
   1.203500000E-02   9.963253137E+01  -2.882432262E+01  -9.805321719E+01   9.963224470E-05
   1.203600000E-02   9.962485064E+01  -2.987852216E+01  -9.806712603E+01   9.962456478E-05
   1.203700000E-02   9.962394525E+01  -2.987825005E+01  -9.808041892E+01   9.962365478E-05
   1.203800000E-02   9.962303164E+01  -2.987797585E+01  -9.809252676E+01   9.962274782E-05
   1.203900000E-02   9.962211073E+01  -2.987769985E+01  -9.810355244E+01   9.962182519E-05
   1.204000000E-02   9.971833961E+01  -1.493524611E+01  -9.810988074E+01   9.971805092E-05
   1.204100000E-02   9.981719579E+01  -9.978392944E-03  -9.808259768E+01   9.981690612E-05
   1.204200000E-02   9.981389566E+01  -8.407670710E-01  -9.805811305E+01   9.981361017E-05
   1.204300000E-02   9.975508297E+01  -1.015781563E+01  -9.804197328E+01   9.975479946E-05
   1.204400000E-02   9.967349096E+01  -2.281858443E+01  -9.804080560E+01   9.967320975E-05
   1.204500000E-02   9.963362214E+01  -2.889473863E+01  -9.805127670E+01   9.963333134E-05
   1.204600000E-02   9.962638634E+01  -2.987898180E+01  -9.806514853E+01   9.962610500E-05
   1.204700000E-02   9.962547840E+01  -2.987870961E+01  -9.807835867E+01   9.962519184E-05
   1.204800000E-02   9.962456538E+01  -2.987843559E+01  -9.809037450E+01   9.962428329E-05
   1.204900000E-02   9.962364474E+01  -2.987815967E+01  -9.810132956E+01   9.962336093E-05
   1.205000000E-02   9.971979926E+01  -1.494684754E+01  -9.810760172E+01   9.971951228E-05
   1.205100000E-02   9.981872814E+01  -9.978546498E-03  -9.808027934E+01   9.981844020E-05
   1.205200000E-02   9.981435924E+01  -1.004303040E+00  -9.805584007E+01   9.981407426E-05
   1.205300000E-02   9.975507398E+01  -1.039138042E+01  -9.803987379E+01   9.975479047E-05
   1.205400000E-02   9.967345917E+01  -2.305191817E+01  -9.803892725E+01   9.967317798E-05
   1.205500000E-02   9.963463348E+01  -2.896453068E+01  -9.804950346E+01   9.963434636E-05
   1.205600000E-02   9.962784379E+01  -2.987942056E+01  -9.806331305E+01   9.962756261E-05
   1.205700000E-02   9.962693611E+01  -2.987914712E+01  -9.807643145E+01   9.962664753E-05
   1.205800000E-02   9.962602250E+01  -2.987887235E+01  -9.808837689E+01   9.962573838E-05
   1.205900000E-02   9.962510160E+01  -2.987859634E+01  -9.809926387E+01   9.962481576E-05
   1.206000000E-02   9.972118278E+01  -1.495841086E+01  -9.810547148E+01   9.972089378E-05
   1.206100000E-02   9.982018618E+01  -9.978692216E-03  -9.807807841E+01   9.981989894E-05
   1.206200000E-02   9.981479351E+01  -1.160694372E+00  -9.805369009E+01   9.981450793E-05
   1.206300000E-02   9.975509540E+01  -1.060823335E+01  -9.803791862E+01   9.975481189E-05
   1.206400000E-02   9.967350338E+01  -2.326174950E+01  -9.803716639E+01   9.967322218E-05
   1.206500000E-02   9.963559788E+01  -2.902982594E+01  -9.804783028E+01   9.963531181E-05
   1.206600000E-02   9.962922970E+01  -2.987983435E+01  -9.806159654E+01   9.962894470E-05
   1.206700000E-02   9.962831897E+01  -2.987956224E+01  -9.807463055E+01   9.962802960E-05
   1.206800000E-02   9.962740366E+01  -2.987928689E+01  -9.808649476E+01   9.962711596E-05
   1.206900000E-02   9.962648241E+01  -2.987901021E+01  -9.809731725E+01   9.962619081E-05
   1.207000000E-02   9.972294112E+01  -1.490051426E+01  -9.810344999E+01   9.972264999E-05
   1.207100000E-02   9.982156882E+01  -9.978830519E-03  -9.807602716E+01   9.982127750E-05
   1.207200000E-02   9.981521843E+01  -1.307511412E+00  -9.805167868E+01   9.981493305E-05
   1.207300000E-02   9.975508870E+01  -1.081850890E+01  -9.803606253E+01   9.975480509E-05
   1.207400000E-02   9.967347160E+01  -2.347214516E+01  -9.803550332E+01   9.967319040E-05
   1.207500000E-02   9.963652114E+01  -2.909074970E+01  -9.804624900E+01   9.963623326E-05
   1.207600000E-02   9.963053710E+01  -2.988022799E+01  -9.805996093E+01   9.963025485E-05
   1.207700000E-02   9.962962883E+01  -2.987995512E+01  -9.807292297E+01   9.962933917E-05
   1.207800000E-02   9.962871022E+01  -2.987967969E+01  -9.808471398E+01   9.962842527E-05
   1.207900000E-02   9.962778728E+01  -2.987940319E+01  -9.809546362E+01   9.962750073E-05
   1.208000000E-02   9.972372457E+01  -1.498153108E+01  -9.810155817E+01   9.972343469E-05
   1.208100000E-02   9.982287427E+01  -9.978960987E-03  -9.807405794E+01   9.982258800E-05
   1.208200000E-02   9.981560603E+01  -1.448412615E+00  -9.804975231E+01   9.981532217E-05
   1.208300000E-02   9.975511545E+01  -1.101325236E+01  -9.803430712E+01   9.975482650E-05
   1.208400000E-02   9.967346490E+01  -2.366840958E+01  -9.803393064E+01   9.967318141E-05
   1.208500000E-02   9.963738488E+01  -2.915017763E+01  -9.804475735E+01   9.963709742E-05
   1.208600000E-02   9.963178034E+01  -2.988060115E+01  -9.805841985E+01   9.963149869E-05
   1.208700000E-02   9.963087266E+01  -2.988032770E+01  -9.807129463E+01   9.963058360E-05
   1.208800000E-02   9.962995431E+01  -2.988005178E+01  -9.808301714E+01   9.962966996E-05
   1.208900000E-02   9.962903077E+01  -2.987977510E+01  -9.809371307E+01   9.962874481E-05
   1.209000000E-02   9.972534560E+01  -1.492361227E+01  -9.809974263E+01   9.972505629E-05
   1.209100000E-02   9.982411671E+01  -9.979085669E-03  -9.807221752E+01   9.982383104E-05
   1.209200000E-02   9.981597782E+01  -1.581623322E+00  -9.804793395E+01   9.981569414E-05
   1.209300000E-02   9.975508367E+01  -1.120612585E+01  -9.803263769E+01   9.975479471E-05
   1.209400000E-02   9.967348632E+01  -2.384993643E+01  -9.803243175E+01   9.967320282E-05
   1.209500000E-02   9.963378147E+01  -2.988120051E+01  -9.804408135E+01   9.963349333E-05
   1.209600000E-02   9.963287216E+01  -2.988092807E+01  -9.805799800E+01   9.963259449E-05
   1.209700000E-02   9.963196448E+01  -2.988065382E+01  -9.807070951E+01   9.963167576E-05
   1.209800000E-02   9.963104421E+01  -2.988037922E+01  -9.808228498E+01   9.963076394E-05
   1.209900000E-02   9.963012057E+01  -2.988010127E+01  -9.809285569E+01   9.962982995E-05
   1.210000000E-02   9.972635930E+01  -1.493508931E+01  -9.809873391E+01   9.972607057E-05
   1.210100000E-02   9.982520854E+01  -9.979194716E-03  -9.807109608E+01   9.982491871E-05
   1.210200000E-02   9.981630866E+01  -1.697525538E+00  -9.804680860E+01   9.981602291E-05
   1.210300000E-02   9.975512788E+01  -1.136382197E+01  -9.803159504E+01   9.975483893E-05
   1.210400000E-02   9.967347733E+01  -2.401321629E+01  -9.803149233E+01   9.967319385E-05
   1.210500000E-02   9.963481926E+01  -2.988151147E+01  -9.804314817E+01   9.963453399E-05
   1.210600000E-02   9.963391024E+01  -2.988123912E+01  -9.805696274E+01   9.963362944E-05
   1.210700000E-02   9.963299557E+01  -2.988096465E+01  -9.806959158E+01   9.963270874E-05
   1.210800000E-02   9.963208012E+01  -2.988069001E+01  -9.808108969E+01   9.963179677E-05
   1.210900000E-02   9.963115223E+01  -2.988041228E+01  -9.809157576E+01   9.963086349E-05
   1.211000000E-02   9.972731900E+01  -1.494664847E+01  -9.809739334E+01   9.972702967E-05
   1.211100000E-02   9.982624696E+01  -9.979298176E-03  -9.806968657E+01   9.982595727E-05
   1.211200000E-02   9.981661447E+01  -1.809294520E+00  -9.804541789E+01   9.981632958E-05
   1.211300000E-02   9.975509610E+01  -1.152534644E+01  -9.803032625E+01   9.975480714E-05
   1.211400000E-02   9.967349874E+01  -2.416388779E+01  -9.803035575E+01   9.967321525E-05
   1.211500000E-02   9.963580506E+01  -2.988180673E+01  -9.804211138E+01   9.963551586E-05
   1.211600000E-02   9.963489437E+01  -2.988153330E+01  -9.805577241E+01   9.963460635E-05
   1.211700000E-02   9.963398207E+01  -2.988125946E+01  -9.806833092E+01   9.963369575E-05
   1.211800000E-02   9.963306162E+01  -2.988098355E+01  -9.807977534E+01   9.963277560E-05
   1.211900000E-02   9.963213372E+01  -2.988070580E+01  -9.809021536E+01   9.963184857E-05
   1.212000000E-02   9.972822902E+01  -1.495821497E+01  -9.809602608E+01   9.972793775E-05
   1.212100000E-02   9.982722238E+01  -9.979395850E-03  -9.806828589E+01   9.982693383E-05
   1.212200000E-02   9.981691575E+01  -1.912849565E+00  -9.804403576E+01   9.981663038E-05
   1.212300000E-02   9.975508711E+01  -1.167510645E+01  -9.802904552E+01   9.975479815E-05
   1.212400000E-02   9.967347230E+01  -2.431469965E+01  -9.802921255E+01   9.967318347E-05
   1.212500000E-02   9.963674201E+01  -2.988208820E+01  -9.804092966E+01   9.963645499E-05
   1.212600000E-02   9.963583229E+01  -2.988181497E+01  -9.805462108E+01   9.963554974E-05
   1.212700000E-02   9.963491817E+01  -2.988154067E+01  -9.806711826E+01   9.963462958E-05
   1.212800000E-02   9.963399657E+01  -2.988126450E+01  -9.807850506E+01   9.963371776E-05
   1.212900000E-02   9.963307364E+01  -2.988098800E+01  -9.808889079E+01   9.963278448E-05
   1.213000000E-02   9.972909022E+01  -1.496965505E+01  -9.809463592E+01   9.972880296E-05
   1.213100000E-02   9.982816162E+01  -9.979489996E-03  -9.806684489E+01   9.982787325E-05
   1.213200000E-02   9.981719118E+01  -2.014361842E+00  -9.804262753E+01   9.981690587E-05
   1.213300000E-02   9.975510852E+01  -1.181367649E+01  -9.802776905E+01   9.975481957E-05
   1.213400000E-02   9.967351651E+01  -2.444747211E+01  -9.802805918E+01   9.967322767E-05
   1.213500000E-02   9.963763808E+01  -2.988235618E+01  -9.803986600E+01   9.963735052E-05
   1.213600000E-02   9.963672719E+01  -2.988208319E+01  -9.805340520E+01   9.963644009E-05
   1.213700000E-02   9.963581068E+01  -2.988180860E+01  -9.806585993E+01   9.963552354E-05
   1.213800000E-02   9.963488775E+01  -2.988153291E+01  -9.807720650E+01   9.963460278E-05
   1.213900000E-02   9.963396432E+01  -2.988125515E+01  -9.808756464E+01   9.963367846E-05
   1.214000000E-02   9.973036031E+01  -1.491168066E+01  -9.809329329E+01   9.973007170E-05
   1.214100000E-02   9.982905311E+01  -9.979578706E-03  -9.806550243E+01   9.982876705E-05
   1.214200000E-02   9.981745704E+01  -2.110230976E+00  -9.804130206E+01   9.981717242E-05
   1.214300000E-02   9.975507674E+01  -1.195362826E+01  -9.802654548E+01   9.975478778E-05
   1.214400000E-02   9.967348472E+01  -2.458511764E+01  -9.802696946E+01   9.967320099E-05
   1.214500000E-02   9.963849312E+01  -2.988261299E+01  -9.803875505E+01   9.963820250E-05
   1.214600000E-02   9.963758216E+01  -2.988233948E+01  -9.805229069E+01   9.963729529E-05
   1.214700000E-02   9.963666685E+01  -2.988206489E+01  -9.806469855E+01   9.963638081E-05
   1.214800000E-02   9.963574547E+01  -2.988178875E+01  -9.807600921E+01   9.963545845E-05
   1.214900000E-02   9.963481683E+01  -2.988151081E+01  -9.808632328E+01   9.963452917E-05
   1.215000000E-02   9.973068978E+01  -1.499263572E+01  -9.809202348E+01   9.973039798E-05
   1.215100000E-02   9.982990843E+01  -9.979664121E-03  -9.806417298E+01   9.982961916E-05
   1.215200000E-02   9.981771809E+01  -2.200695664E+00  -9.804001795E+01   9.981743251E-05
   1.215300000E-02   9.975512095E+01  -1.207565890E+01  -9.802537353E+01   9.975483199E-05
   1.215400000E-02   9.967347574E+01  -2.471331532E+01  -9.802591339E+01   9.967319200E-05
   1.215500000E-02   9.964206707E+01  -2.946347554E+01  -9.803712248E+01   9.964177669E-05
   1.215600000E-02   9.963845841E+01  -2.988260255E+01  -9.805049894E+01   9.963817299E-05
   1.215700000E-02   9.963754310E+01  -2.988232853E+01  -9.806292529E+01   9.963725063E-05
   1.215800000E-02   9.963662186E+01  -2.988205109E+01  -9.807425228E+01   9.963633420E-05
   1.215900000E-02   9.963569333E+01  -2.988177260E+01  -9.808458135E+01   9.963540430E-05
   1.216000000E-02   9.973194461E+01  -1.493465765E+01  -9.809028410E+01   9.973165581E-05
   1.216100000E-02   9.983078540E+01  -9.979751974E-03  -9.806246347E+01   9.983049915E-05
   1.216200000E-02   9.981797932E+01  -2.295021436E+00  -9.803837053E+01   9.981769464E-05
   1.216300000E-02   9.975508917E+01  -1.221342766E+01  -9.802386927E+01   9.975480021E-05
   1.216400000E-02   9.967349715E+01  -2.484062466E+01  -9.802456379E+01   9.967321341E-05
   1.216500000E-02   9.964265415E+01  -2.950193688E+01  -9.803584782E+01   9.964236737E-05
   1.216600000E-02   9.963928992E+01  -2.988285238E+01  -9.804922781E+01   9.963900963E-05
   1.216700000E-02   9.963837435E+01  -2.988257828E+01  -9.806163223E+01   9.963808700E-05
   1.216800000E-02   9.963745371E+01  -2.988230102E+01  -9.807292875E+01   9.963716608E-05
   1.216900000E-02   9.963652543E+01  -2.988202262E+01  -9.808323239E+01   9.963623427E-05
   1.217000000E-02   9.973270242E+01  -1.494614339E+01  -9.808892446E+01   9.973241148E-05
   1.217100000E-02   9.983161995E+01  -9.979835452E-03  -9.806107956E+01   9.983132869E-05
   1.217200000E-02   9.981823409E+01  -2.383391404E+00  -9.803703068E+01   9.981794876E-05
   1.217300000E-02   9.975508017E+01  -1.234095519E+01  -9.802263670E+01   9.975479121E-05
   1.217400000E-02   9.967346537E+01  -2.496954086E+01  -9.802346662E+01   9.967318163E-05
   1.217500000E-02   9.964320598E+01  -2.953962196E+01  -9.803481403E+01   9.964291384E-05
   1.217600000E-02   9.964008361E+01  -2.988309087E+01  -9.804816235E+01   9.963979567E-05
   1.217700000E-02   9.963916830E+01  -2.988281552E+01  -9.806052328E+01   9.963887840E-05
   1.217800000E-02   9.963824706E+01  -2.988253884E+01  -9.807178937E+01   9.963795906E-05
   1.217900000E-02   9.963731853E+01  -2.988226093E+01  -9.808206823E+01   9.963702698E-05
   1.218000000E-02   9.973341828E+01  -1.495762111E+01  -9.808772505E+01   9.973313078E-05
   1.218100000E-02   9.983241137E+01  -9.979914697E-03  -9.805984165E+01   9.983212259E-05
   1.218200000E-02   9.981846425E+01  -2.469438513E+00  -9.803582323E+01   9.981817881E-05
   1.218300000E-02   9.975510159E+01  -1.245728396E+01  -9.802154240E+01   9.975481264E-05
   1.218400000E-02   9.967350958E+01  -2.508040018E+01  -9.802247772E+01   9.967322584E-05
   1.218500000E-02   9.964372846E+01  -2.957501790E+01  -9.803388323E+01   9.964344263E-05
   1.218600000E-02   9.964083628E+01  -2.988331583E+01  -9.804721228E+01   9.964055201E-05
   1.218700000E-02   9.963991792E+01  -2.988304048E+01  -9.805952699E+01   9.963962965E-05
   1.218800000E-02   9.963899498E+01  -2.988276398E+01  -9.807074511E+01   9.963870873E-05
   1.218900000E-02   9.963806611E+01  -2.988248463E+01  -9.808098977E+01   9.963777630E-05
   1.219000000E-02   9.973454723E+01  -1.489962225E+01  -9.808660362E+01   9.973425765E-05
   1.219100000E-02   9.983316077E+01  -9.979989437E-03  -9.805872049E+01   9.983287087E-05
   1.219200000E-02   9.981870017E+01  -2.547845922E+00  -9.803472316E+01   9.981841525E-05
   1.219300000E-02   9.975509261E+01  -1.257221706E+01  -9.802052270E+01   9.975480365E-05
   1.219400000E-02   9.967347779E+01  -2.519689766E+01  -9.802156526E+01   9.967319406E-05
   1.219500000E-02   9.964423228E+01  -2.960822809E+01  -9.803301063E+01   9.964394357E-05
   1.219600000E-02   9.964154860E+01  -2.988352960E+01  -9.804631102E+01   9.964126555E-05
   1.219700000E-02   9.964062735E+01  -2.988325407E+01  -9.805858837E+01   9.964034259E-05
   1.219800000E-02   9.963970416E+01  -2.988297749E+01  -9.806977432E+01   9.963942141E-05
   1.219900000E-02   9.963877589E+01  -2.988269833E+01  -9.807998161E+01   9.963848959E-05
   1.220000000E-02   9.973473555E+01  -1.498055949E+01  -9.808558181E+01   9.973444203E-05
   1.220100000E-02   9.983387589E+01  -9.980060882E-03  -9.805764278E+01   9.983358473E-05
   1.220200000E-02   9.981890696E+01  -2.625475807E+00  -9.803367062E+01   9.981862081E-05
   1.220300000E-02   9.975511402E+01  -1.267654904E+01  -9.801956490E+01   9.975482506E-05
   1.220400000E-02   9.967347414E+01  -2.530411944E+01  -9.802070457E+01   9.967318507E-05
   1.220500000E-02   9.964470199E+01  -2.964029355E+01  -9.803220041E+01   9.964441468E-05
   1.220600000E-02   9.964222497E+01  -2.988373225E+01  -9.804547536E+01   9.964193677E-05
   1.220700000E-02   9.964130661E+01  -2.988345632E+01  -9.805770406E+01   9.964101731E-05
   1.220800000E-02   9.964038367E+01  -2.988317982E+01  -9.806884911E+01   9.964009857E-05
   1.220900000E-02   9.963945480E+01  -2.988290047E+01  -9.807902522E+01   9.963916106E-05
   1.221000000E-02   9.973578440E+01  -1.492254948E+01  -9.808458245E+01   9.973549615E-05
   1.221100000E-02   9.983454900E+01  -9.980128172E-03  -9.805664848E+01   9.983426026E-05
   1.221200000E-02   9.981910589E+01  -2.698188037E+00  -9.803268012E+01   9.981882132E-05
   1.221300000E-02   9.975508224E+01  -1.278364974E+01  -9.801865370E+01   9.975479328E-05
   1.221400000E-02   9.967349556E+01  -2.540119713E+01  -9.801988966E+01   9.967320648E-05
   1.221500000E-02   9.964374544E+01  -2.988418808E+01  -9.803177579E+01   9.964345665E-05
   1.221600000E-02   9.964283613E+01  -2.988391498E+01  -9.804507401E+01   9.964254926E-05
   1.221700000E-02   9.964191586E+01  -2.988363915E+01  -9.805723193E+01   9.964162325E-05
   1.221800000E-02   9.964099293E+01  -2.988336265E+01  -9.806830985E+01   9.964070415E-05
   1.221900000E-02   9.964006370E+01  -2.988308300E+01  -9.807842214E+01   9.963976961E-05
   1.222000000E-02   9.973632134E+01  -1.493394297E+01  -9.808390945E+01   9.973603392E-05
   1.222100000E-02   9.983515731E+01  -9.980188790E-03  -9.805591217E+01   9.983486771E-05
   1.222200000E-02   9.981929515E+01  -2.762228049E+00  -9.803196202E+01   9.981900864E-05
   1.222300000E-02   9.975512644E+01  -1.286864702E+01  -9.801799552E+01   9.975483749E-05
   1.222400000E-02   9.967348658E+01  -2.549287515E+01  -9.801929220E+01   9.967319750E-05
   1.222500000E-02   9.964433043E+01  -2.988436295E+01  -9.803116546E+01   9.964403893E-05
   1.222600000E-02   9.964341779E+01  -2.988408903E+01  -9.804441117E+01   9.964313183E-05
   1.222700000E-02   9.964249549E+01  -2.988381265E+01  -9.805653311E+01   9.964220512E-05
   1.222800000E-02   9.964157240E+01  -2.988353611E+01  -9.806757309E+01   9.964128587E-05
   1.222900000E-02   9.964064318E+01  -2.988325646E+01  -9.807765317E+01   9.964035132E-05
   1.223000000E-02   9.973682701E+01  -1.494544776E+01  -9.808310679E+01   9.973653456E-05
   1.223100000E-02   9.983573797E+01  -9.980247197E-03  -9.805507093E+01   9.983544788E-05
   1.223200000E-02   9.981946515E+01  -2.825867318E+00  -9.803113536E+01   9.981917399E-05
   1.223300000E-02   9.975509695E+01  -1.296132952E+01  -9.801724154E+01   9.975480571E-05
   1.223400000E-02   9.967350798E+01  -2.557574296E+01  -9.801861914E+01   9.967322400E-05
   1.223500000E-02   9.964488347E+01  -2.988452911E+01  -9.803051726E+01   9.964459099E-05
   1.223600000E-02   9.964396755E+01  -2.988425434E+01  -9.804370105E+01   9.964367797E-05
   1.223700000E-02   9.964304654E+01  -2.988397831E+01  -9.805578574E+01   9.964275597E-05
   1.223800000E-02   9.964212360E+01  -2.988370044E+01  -9.806679742E+01   9.964183215E-05
   1.223900000E-02   9.964118976E+01  -2.988342204E+01  -9.807685385E+01   9.964090312E-05
   1.224000000E-02   9.973730603E+01  -1.495693815E+01  -9.808231176E+01   9.973701343E-05
   1.224100000E-02   9.983628900E+01  -9.980302380E-03  -9.805426742E+01   9.983599971E-05
   1.224200000E-02   9.981964323E+01  -2.882716969E+00  -9.803034495E+01   9.981935316E-05
   1.224300000E-02   9.975508796E+01  -1.304616562E+01  -9.801650571E+01   9.975479672E-05
   1.224400000E-02   9.967347621E+01  -2.566256554E+01  -9.801796015E+01   9.967319222E-05
   1.224500000E-02   9.964631102E+01  -2.974761240E+01  -9.802957856E+01   9.964602273E-05
   1.224600000E-02   9.964451635E+01  -2.988441898E+01  -9.804275234E+01   9.964422897E-05
   1.224700000E-02   9.964359511E+01  -2.988414287E+01  -9.805483724E+01   9.964330382E-05
   1.224800000E-02   9.964267191E+01  -2.988386629E+01  -9.806584533E+01   9.964238265E-05
   1.224900000E-02   9.964174364E+01  -2.988358713E+01  -9.807589313E+01   9.964145082E-05
   1.225000000E-02   9.973778187E+01  -1.496833322E+01  -9.808134886E+01   9.973748929E-05
   1.225100000E-02   9.983683914E+01  -9.980357410E-03  -9.805328311E+01   9.983654895E-05
   1.225200000E-02   9.981979839E+01  -2.943214346E+00  -9.802939700E+01   9.981950724E-05
   1.225300000E-02   9.975510938E+01  -1.312602523E+01  -9.801564928E+01   9.975481813E-05
   1.225400000E-02   9.967352041E+01  -2.573745651E+01  -9.801718912E+01   9.967323642E-05
   1.225500000E-02   9.964667907E+01  -2.977214089E+01  -9.802885605E+01   9.964638899E-05
   1.225600000E-02   9.964504242E+01  -2.988457585E+01  -9.804202417E+01   9.964475249E-05
   1.225700000E-02   9.964412178E+01  -2.988429935E+01  -9.805407275E+01   9.964382794E-05
   1.225800000E-02   9.964319351E+01  -2.988402285E+01  -9.806505829E+01   9.964290702E-05
   1.225900000E-02   9.964226234E+01  -2.988374350E+01  -9.807509236E+01   9.964196950E-05
   1.226000000E-02   9.973867815E+01  -1.491029855E+01  -9.808052492E+01   9.973839063E-05
   1.226100000E-02   9.983736156E+01  -9.980409450E-03  -9.805246913E+01   9.983706896E-05
   1.226200000E-02   9.981995347E+01  -2.999597553E+00  -9.802858429E+01   9.981966154E-05
   1.226300000E-02   9.975507759E+01  -1.320997775E+01  -9.801490305E+01   9.975478635E-05
   1.226400000E-02   9.967349397E+01  -2.581983894E+01  -9.801652255E+01   9.967320465E-05
   1.226500000E-02   9.964702922E+01  -2.979527514E+01  -9.802822527E+01   9.964673605E-05
   1.226600000E-02   9.964553883E+01  -2.988472477E+01  -9.804137254E+01   9.964524774E-05
   1.226700000E-02   9.964461759E+01  -2.988444809E+01  -9.805340189E+01   9.964432260E-05
   1.226800000E-02   9.964368905E+01  -2.988417151E+01  -9.806436741E+01   9.964340142E-05
   1.226900000E-02   9.964275849E+01  -2.988389234E+01  -9.807437188E+01   9.964246451E-05
   1.227000000E-02   9.973864900E+01  -1.499120674E+01  -9.807979694E+01   9.973836034E-05
   1.227100000E-02   9.983785829E+01  -9.980458892E-03  -9.805170130E+01   9.983756727E-05
   1.227200000E-02   9.982010907E+01  -3.051513816E+00  -9.802784860E+01   9.981981680E-05
   1.227300000E-02   9.975512180E+01  -1.327800678E+01  -9.801422939E+01   9.975483056E-05
   1.227400000E-02   9.967348498E+01  -2.589467123E+01  -9.801591521E+01   9.967320075E-05
   1.227500000E-02   9.964691176E+01  -2.988513798E+01  -9.802782614E+01   9.964662181E-05
   1.227600000E-02   9.964599645E+01  -2.988486339E+01  -9.804092818E+01   9.964570871E-05
   1.227700000E-02   9.964507414E+01  -2.988458701E+01  -9.805291758E+01   9.964478073E-05
   1.227800000E-02   9.964414476E+01  -2.988430889E+01  -9.806384037E+01   9.964386148E-05
   1.227900000E-02   9.964321420E+01  -2.988402891E+01  -9.807381854E+01   9.964292693E-05
   1.228000000E-02   9.973948424E+01  -1.493316206E+01  -9.807917516E+01   9.973919620E-05
   1.228100000E-02   9.983831778E+01  -9.980504413E-03  -9.805108093E+01   9.983802452E-05
   1.228200000E-02   9.982024351E+01  -3.101200124E+00  -9.802722128E+01   9.981995143E-05
   1.228300000E-02   9.975509002E+01  -1.335248554E+01  -9.801365029E+01   9.975479877E-05
   1.228400000E-02   9.967351173E+01  -2.595940455E+01  -9.801539924E+01   9.967322216E-05
   1.228500000E-02   9.964734768E+01  -2.988526914E+01  -9.802731175E+01   9.964706160E-05
   1.228600000E-02   9.964643238E+01  -2.988499455E+01  -9.804035067E+01   9.964614505E-05
   1.228700000E-02   9.964551100E+01  -2.988471841E+01  -9.805231646E+01   9.964522269E-05
   1.228800000E-02   9.964458782E+01  -2.988444047E+01  -9.806322000E+01   9.964429862E-05
   1.228900000E-02   9.964365397E+01  -2.988416070E+01  -9.807317503E+01   9.964336438E-05
   1.229000000E-02   9.973985302E+01  -1.494457725E+01  -9.807854034E+01   9.973955904E-05
   1.229100000E-02   9.983875347E+01  -9.980548267E-03  -9.805041227E+01   9.983846644E-05
   1.229200000E-02   9.982038111E+01  -3.146933253E+00  -9.802658475E+01   9.982009171E-05
   1.229300000E-02   9.975508102E+01  -1.342015785E+01  -9.801306405E+01   9.975478978E-05
   1.229400000E-02   9.967347996E+01  -2.602894135E+01  -9.801487466E+01   9.967319548E-05
   1.229500000E-02   9.964795466E+01  -2.985701637E+01  -9.802665538E+01   9.964766661E-05
   1.229600000E-02   9.964685850E+01  -2.988512143E+01  -9.803975284E+01   9.964657175E-05
   1.229700000E-02   9.964593785E+01  -2.988484493E+01  -9.805169040E+01   9.964564721E-05
   1.229800000E-02   9.964500898E+01  -2.988456692E+01  -9.806258170E+01   9.964472059E-05
   1.229900000E-02   9.964407816E+01  -2.988428710E+01  -9.807252330E+01   9.964378633E-05
   1.230000000E-02   9.974019878E+01  -1.495601169E+01  -9.807787882E+01   9.973990718E-05
   1.230100000E-02   9.983918154E+01  -9.980591190E-03  -9.804973311E+01   9.983888926E-05
   1.230200000E-02   9.982049866E+01  -3.194046126E+00  -9.802592069E+01   9.982020769E-05
   1.230300000E-02   9.975510245E+01  -1.348089050E+01  -9.801246616E+01   9.975481120E-05
   1.230400000E-02   9.967353483E+01  -2.608404814E+01  -9.801433387E+01   9.967324476E-05
   1.230500000E-02   9.964824214E+01  -2.987543892E+01  -9.802614880E+01   9.964794876E-05
   1.230600000E-02   9.964726250E+01  -2.988524282E+01  -9.803923289E+01   9.964697158E-05
   1.230700000E-02   9.964634185E+01  -2.988496556E+01  -9.805115018E+01   9.964604702E-05
   1.230800000E-02   9.964541358E+01  -2.988468715E+01  -9.806201359E+01   9.964512611E-05
   1.230900000E-02   9.964447768E+01  -2.988440875E+01  -9.807193519E+01   9.964418920E-05
   1.231000000E-02   9.974098061E+01  -1.489795753E+01  -9.807726845E+01   9.974068848E-05
   1.231100000E-02   9.983957713E+01  -9.980631122E-03  -9.804913279E+01   9.983928830E-05
   1.231200000E-02   9.982063279E+01  -3.234608169E+00  -9.802533615E+01   9.982034286E-05
   1.231300000E-02   9.975509346E+01  -1.354311159E+01  -9.801191501E+01   9.975480222E-05
   1.231400000E-02   9.967349307E+01  -2.616471526E+01  -9.801273574E+01   9.967320870E-05
   1.231500000E-02   9.964855943E+01  -2.988563190E+01  -9.802589399E+01   9.964826590E-05
   1.231600000E-02   9.964764404E+01  -2.988535728E+01  -9.803891721E+01   9.964735545E-05
   1.231700000E-02   9.964672149E+01  -2.988508088E+01  -9.805079753E+01   9.964642544E-05
   1.231800000E-02   9.964579131E+01  -2.988480257E+01  -9.806162778E+01   9.964550816E-05
   1.231900000E-02   9.964485992E+01  -2.988452211E+01  -9.807152341E+01   9.964457006E-05
   1.232000000E-02   9.974083702E+01  -1.497885024E+01  -9.807677322E+01   9.974054540E-05
   1.232100000E-02   9.983995942E+01  -9.980669389E-03  -9.804858904E+01   9.983967020E-05
   1.232200000E-02   9.982073635E+01  -3.277232154E+00  -9.802480180E+01   9.982044548E-05
   1.232300000E-02   9.975511487E+01  -1.359744522E+01  -9.801143610E+01   9.975482363E-05
   1.232400000E-02   9.967346129E+01  -2.622630954E+01  -9.801230398E+01   9.967317694E-05
   1.232500000E-02   9.965064173E+01  -2.962832624E+01  -9.802473460E+01   9.965035000E-05
   1.232600000E-02   9.964807157E+01  -2.988548707E+01  -9.803765934E+01   9.964778829E-05
   1.232700000E-02   9.964714997E+01  -2.988520933E+01  -9.804958486E+01   9.964686229E-05
   1.232800000E-02   9.964622633E+01  -2.988493071E+01  -9.806046143E+01   9.964593648E-05
   1.232900000E-02   9.964529065E+01  -2.988465226E+01  -9.807039416E+01   9.964500050E-05
   1.233000000E-02   9.974164557E+01  -1.492080047E+01  -9.807570510E+01   9.974135215E-05
   1.233100000E-02   9.984039315E+01  -9.980712115E-03  -9.804757292E+01   9.984010289E-05
   1.233200000E-02   9.982086366E+01  -3.324039331E+00  -9.802381974E+01   9.982057329E-05
   1.233300000E-02   9.975508309E+01  -1.366781700E+01  -9.801054586E+01   9.975479184E-05
   1.233400000E-02   9.967418293E+01  -2.616571388E+01  -9.801254562E+01   9.967389759E-05
   1.233500000E-02   9.964934574E+01  -2.988586798E+01  -9.802436995E+01   9.964905728E-05
   1.233600000E-02   9.964842984E+01  -2.988559379E+01  -9.803742800E+01   9.964814304E-05
   1.233700000E-02   9.964750893E+01  -2.988531645E+01  -9.804931043E+01   9.964721823E-05
   1.233800000E-02   9.964658066E+01  -2.988503804E+01  -9.806014614E+01   9.964629222E-05
   1.233900000E-02   9.964565010E+01  -2.988475830E+01  -9.807003930E+01   9.964535313E-05
   1.234000000E-02   9.974192699E+01  -1.493214423E+01  -9.807535255E+01   9.974163534E-05
   1.234100000E-02   9.984075255E+01  -9.980748170E-03  -9.804717414E+01   9.984046023E-05
   1.234200000E-02   9.982097886E+01  -3.360884235E+00  -9.802343417E+01   9.982068788E-05
   1.234300000E-02   9.975512730E+01  -1.371472330E+01  -9.801018856E+01   9.975483606E-05
   1.234400000E-02   9.967347371E+01  -2.634165293E+01  -9.801118262E+01   9.967318936E-05
   1.234500000E-02   9.965126627E+01  -2.964876843E+01  -9.802366543E+01   9.965097569E-05
   1.234600000E-02   9.964882702E+01  -2.988571218E+01  -9.803657173E+01   9.964853912E-05
   1.234700000E-02   9.964790471E+01  -2.988543423E+01  -9.804847590E+01   9.964761114E-05
   1.234800000E-02   9.964697533E+01  -2.988515578E+01  -9.805932114E+01   9.964668589E-05
   1.234900000E-02   9.964603848E+01  -2.988487737E+01  -9.806922309E+01   9.964575007E-05
   1.235000000E-02   9.974224566E+01  -1.494363425E+01  -9.807451939E+01   9.974195400E-05
   1.235100000E-02   9.984114247E+01  -9.980787717E-03  -9.804634428E+01   9.984085395E-05
   1.235200000E-02   9.982108416E+01  -3.404939585E+00  -9.802264124E+01   9.982079432E-05
   1.235300000E-02   9.975509552E+01  -1.377928108E+01  -9.800946773E+01   9.975480427E-05
   1.235400000E-02   9.967351792E+01  -2.639348870E+01  -9.801053868E+01   9.967323354E-05
   1.235500000E-02   9.965157252E+01  -2.965939347E+01  -9.802306799E+01   9.965127965E-05
   1.235600000E-02   9.964920050E+01  -2.988582460E+01  -9.803596906E+01   9.964890984E-05
   1.235700000E-02   9.964827890E+01  -2.988554687E+01  -9.804785483E+01   9.964798257E-05
   1.235800000E-02   9.964734968E+01  -2.988526846E+01  -9.805869109E+01   9.964706346E-05
   1.235900000E-02   9.964641840E+01  -2.988498827E+01  -9.806859340E+01   9.964612220E-05
   1.236000000E-02   9.974254547E+01  -1.495508721E+01  -9.807388458E+01   9.974225468E-05
   1.236100000E-02   9.984151517E+01  -9.980824855E-03  -9.804571822E+01   9.984122662E-05
   1.236200000E-02   9.982121244E+01  -3.442454843E+00  -9.802203372E+01   9.982092177E-05
   1.236300000E-02   9.975508652E+01  -1.383742256E+01  -9.800889908E+01   9.975479528E-05
   1.236400000E-02   9.967349109E+01  -2.645415786E+01  -9.801003070E+01   9.967320178E-05
   1.236500000E-02   9.965187305E+01  -2.966874470E+01  -9.802257831E+01   9.965157716E-05
   1.236600000E-02   9.964955888E+01  -2.988593135E+01  -9.803547243E+01   9.964926616E-05
   1.236700000E-02   9.964863083E+01  -2.988565357E+01  -9.804734325E+01   9.964833873E-05
   1.236800000E-02   9.964770656E+01  -2.988537516E+01  -9.805816386E+01   9.964741963E-05
   1.236900000E-02   9.964677104E+01  -2.988509518E+01  -9.806804936E+01   9.964647908E-05
   1.237000000E-02   9.974283049E+01  -1.496646550E+01  -9.807333369E+01   9.974253765E-05
   1.237100000E-02   9.984187457E+01  -9.980860328E-03  -9.804514109E+01   9.984158395E-05
   1.237200000E-02   9.982130835E+01  -3.482562509E+00  -9.802146892E+01   9.982101706E-05
   1.237300000E-02   9.975510794E+01  -1.388803485E+01  -9.800839491E+01   9.975481670E-05
   1.237400000E-02   9.967345932E+01  -2.651208567E+01  -9.800958380E+01   9.967317001E-05
   1.237500000E-02   9.965214655E+01  -2.967856469E+01  -9.802214726E+01   9.965185582E-05
   1.237600000E-02   9.964989492E+01  -2.988603255E+01  -9.803502011E+01   9.964960847E-05
   1.237700000E-02   9.964897332E+01  -2.988575638E+01  -9.804687421E+01   9.964868120E-05
   1.237800000E-02   9.964804338E+01  -2.988547810E+01  -9.805768829E+01   9.964775539E-05
   1.237900000E-02   9.964711266E+01  -2.988519807E+01  -9.806755991E+01   9.964681941E-05
   1.238000000E-02   9.974355131E+01  -1.490840029E+01  -9.807281487E+01   9.974325710E-05
   1.238100000E-02   9.984221675E+01  -9.980894673E-03  -9.804463235E+01   9.984192206E-05
   1.238200000E-02   9.982140796E+01  -3.519425887E+00  -9.802096142E+01   9.982111626E-05
   1.238300000E-02   9.975507616E+01  -1.394428768E+01  -9.800792747E+01   9.975478491E-05
   1.238400000E-02   9.967350352E+01  -2.655573550E+01  -9.800915875E+01   9.967321420E-05
   1.238500000E-02   9.965242166E+01  -2.968682507E+01  -9.802174067E+01   9.965212441E-05
   1.238600000E-02   9.965021648E+01  -2.988612976E+01  -9.803460740E+01   9.964992841E-05
   1.238700000E-02   9.964929339E+01  -2.988585198E+01  -9.804644025E+01   9.964900098E-05
   1.238800000E-02   9.964836417E+01  -2.988557357E+01  -9.805722917E+01   9.964808188E-05
   1.238900000E-02   9.964743360E+01  -2.988529359E+01  -9.806708430E+01   9.964714134E-05
   1.239000000E-02   9.974334666E+01  -1.498928561E+01  -9.807235398E+01   9.974305217E-05
   1.239100000E-02   9.984253801E+01  -9.980926420E-03  -9.804413627E+01   9.984224575E-05
   1.239200000E-02   9.982151216E+01  -3.552615296E+00  -9.802048428E+01   9.982122038E-05
   1.239300000E-02   9.975512037E+01  -1.398613546E+01  -9.800748914E+01   9.975482912E-05
   1.239400000E-02   9.967347174E+01  -2.660854016E+01  -9.800877025E+01   9.967318243E-05
   1.239500000E-02   9.965267019E+01  -2.969571058E+01  -9.802137066E+01   9.965237327E-05
   1.239600000E-02   9.965052200E+01  -2.988622142E+01  -9.803421614E+01   9.965024034E-05
   1.239700000E-02   9.964959907E+01  -2.988594525E+01  -9.804602598E+01   9.964930835E-05
   1.239800000E-02   9.964866913E+01  -2.988566539E+01  -9.805680700E+01   9.964838726E-05
   1.239900000E-02   9.964773842E+01  -2.988538503E+01  -9.806664825E+01   9.964744656E-05
   1.240000000E-02   9.974402933E+01  -1.493121629E+01  -9.807188474E+01   9.974373525E-05
   1.240100000E-02   9.984284204E+01  -9.980957039E-03  -9.804368857E+01   9.984255020E-05
   1.240200000E-02   9.982160031E+01  -3.585972773E+00  -9.802003248E+01   9.982130865E-05
   1.240300000E-02   9.975508858E+01  -1.403743149E+01  -9.800707514E+01   9.975479734E-05
   1.240400000E-02   9.967351594E+01  -2.664731398E+01  -9.800839359E+01   9.967322662E-05
   1.240500000E-02   9.965290760E+01  -2.970397120E+01  -9.802101376E+01   9.965261161E-05
   1.240600000E-02   9.965081786E+01  -2.988630905E+01  -9.803384994E+01   9.965053103E-05
   1.240700000E-02   9.964988996E+01  -2.988603131E+01  -9.804564408E+01   9.964959902E-05
   1.240800000E-02   9.964896569E+01  -2.988575290E+01  -9.805640131E+01   9.964867865E-05
   1.240900000E-02   9.964802946E+01  -2.988547271E+01  -9.806623349E+01   9.964773738E-05
   1.241000000E-02   9.974424560E+01  -1.494259683E+01  -9.807145974E+01   9.974395264E-05
   1.241100000E-02   9.984313278E+01  -9.980986923E-03  -9.804323349E+01   9.984284206E-05
   1.241200000E-02   9.982169555E+01  -3.615794546E+00  -9.801960414E+01   9.982140423E-05
   1.241300000E-02   9.975513280E+01  -1.407456565E+01  -9.800667948E+01   9.975484155E-05
   1.241400000E-02   9.967348417E+01  -2.669547819E+01  -9.800804097E+01   9.967319485E-05
   1.241500000E-02   9.965313701E+01  -2.971120850E+01  -9.802067035E+01   9.965284853E-05
   1.241600000E-02   9.965109301E+01  -2.988639155E+01  -9.803348847E+01   9.965080928E-05
   1.241700000E-02   9.965017070E+01  -2.988611483E+01  -9.804527554E+01   9.964987530E-05
   1.241800000E-02   9.964924133E+01  -2.988583672E+01  -9.805601900E+01   9.964895478E-05
   1.241900000E-02   9.964830447E+01  -2.988555674E+01  -9.806583444E+01   9.964801423E-05
   1.242000000E-02   9.974444632E+01  -1.495402302E+01  -9.807105381E+01   9.974415519E-05
   1.242100000E-02   9.984341589E+01  -9.981014014E-03  -9.804280321E+01   9.984311936E-05
   1.242200000E-02   9.982176792E+01  -3.647434224E+00  -9.801918663E+01   9.982147486E-05
   1.242300000E-02   9.975510101E+01  -1.412137996E+01  -9.800630365E+01   9.975480977E-05
   1.242400000E-02   9.967347898E+01  -2.673741724E+01  -9.800770550E+01   9.967318966E-05
   1.242500000E-02   9.965335447E+01  -2.971883481E+01  -9.802035377E+01   9.965306179E-05
   1.242600000E-02   9.965135339E+01  -2.988647121E+01  -9.803316040E+01   9.965107086E-05
   1.242700000E-02   9.965043045E+01  -2.988619348E+01  -9.804492287E+01   9.965013759E-05
   1.242800000E-02   9.964950123E+01  -2.988591507E+01  -9.805564975E+01   9.964921721E-05
   1.242900000E-02   9.964856995E+01  -2.988563488E+01  -9.806545783E+01   9.964827595E-05
   1.243000000E-02   9.974463901E+01  -1.496550605E+01  -9.807066698E+01   9.974434279E-05
   1.243100000E-02   9.984367415E+01  -9.981039977E-03  -9.804242418E+01   9.984338016E-05
   1.243200000E-02   9.982186309E+01  -3.672761560E+00  -9.801881250E+01   9.982157078E-05
   1.243300000E-02   9.975509203E+01  -1.416255847E+01  -9.800594789E+01   9.975480078E-05
   1.243400000E-02   9.967349659E+01  -2.677381847E+01  -9.800738529E+01   9.967320727E-05
   1.243500000E-02   9.965356591E+01  -2.972521507E+01  -9.802004004E+01   9.965326961E-05
   1.243600000E-02   9.965160495E+01  -2.988654587E+01  -9.803284551E+01   9.965131804E-05
   1.243700000E-02   9.965068186E+01  -2.988626933E+01  -9.804459435E+01   9.965039061E-05
   1.243800000E-02   9.964975264E+01  -2.988598968E+01  -9.805531187E+01   9.964946551E-05
   1.243900000E-02   9.964882207E+01  -2.988570937E+01  -9.806509827E+01   9.964852369E-05
   1.244000000E-02   9.974481370E+01  -1.497682141E+01  -9.807030299E+01   9.974452055E-05
   1.244100000E-02   9.984392674E+01  -9.981065205E-03  -9.804203490E+01   9.984363291E-05
   1.244200000E-02   9.982192613E+01  -3.701561485E+00  -9.801843314E+01   9.982163470E-05
   1.244300000E-02   9.975511344E+01  -1.419702054E+01  -9.800561072E+01   9.975482219E-05
   1.244400000E-02   9.967346482E+01  -2.681585120E+01  -9.800708346E+01   9.967317550E-05
   1.244500000E-02   9.965375836E+01  -2.973211510E+01  -9.801975398E+01   9.965346502E-05
   1.244600000E-02   9.965184181E+01  -2.988661655E+01  -9.803253821E+01   9.965155849E-05
   1.244700000E-02   9.965091888E+01  -2.988634005E+01  -9.804427034E+01   9.965062522E-05
   1.244800000E-02   9.964998894E+01  -2.988606176E+01  -9.805498123E+01   9.964970413E-05
   1.244900000E-02   9.964905822E+01  -2.988578174E+01  -9.806476004E+01   9.964876343E-05
   1.245000000E-02   9.974542772E+01  -1.491874076E+01  -9.806994055E+01   9.974513451E-05
   1.245100000E-02   9.984416211E+01  -9.981089305E-03  -9.804168927E+01   9.984386733E-05
   1.245200000E-02   9.982199350E+01  -3.727580157E+00  -9.801807520E+01   9.982170097E-05
   1.245300000E-02   9.975508165E+01  -1.423791001E+01  -9.800528301E+01   9.975479041E-05
   1.245400000E-02   9.967350901E+01  -2.684439005E+01  -9.800679063E+01   9.967321969E-05
   1.245500000E-02   9.965394573E+01  -2.973852546E+01  -9.801948101E+01   9.965364965E-05
   1.245600000E-02   9.965207033E+01  -2.988668510E+01  -9.803225589E+01   9.965178369E-05
   1.245700000E-02   9.965114740E+01  -2.988640703E+01  -9.804397862E+01   9.965085041E-05
   1.245800000E-02   9.965021817E+01  -2.988612863E+01  -9.805466712E+01   9.964993004E-05
   1.245900000E-02   9.964928132E+01  -2.988584865E+01  -9.806443573E+01   9.964898949E-05
   1.246000000E-02   9.974512770E+01  -1.499961333E+01  -9.806962467E+01   9.974483499E-05
   1.246100000E-02   9.984438704E+01  -9.981111739E-03  -9.804133526E+01   9.984409370E-05
   1.246200000E-02   9.982206846E+01  -3.750353655E+00  -9.801774831E+01   9.982177722E-05
   1.246300000E-02   9.975512587E+01  -1.426515757E+01  -9.800498110E+01   9.975483462E-05
   1.246400000E-02   9.967347724E+01  -2.688282462E+01  -9.800651704E+01   9.967318792E-05
   1.246500000E-02   9.965412434E+01  -2.974411603E+01  -9.801920759E+01   9.965382610E-05
   1.246600000E-02   9.965228446E+01  -2.988674977E+01  -9.803196943E+01   9.965199519E-05
   1.246700000E-02   9.965136081E+01  -2.988647182E+01  -9.804369265E+01   9.965106720E-05
   1.246800000E-02   9.965043143E+01  -2.988619337E+01  -9.805437500E+01   9.965014196E-05
   1.246900000E-02   9.964949458E+01  -2.988591339E+01  -9.806412934E+01   9.964920013E-05
   1.247000000E-02   9.974572263E+01  -1.494152865E+01  -9.806929655E+01   9.974542712E-05
   1.247100000E-02   9.984460625E+01  -9.981133241E-03  -9.804099937E+01   9.984431279E-05
   1.247200000E-02   9.982212202E+01  -3.775416509E+00  -9.801742239E+01   9.982182989E-05
   1.247300000E-02   9.975509408E+01  -1.430257178E+01  -9.800468621E+01   9.975480284E-05
   1.247400000E-02   9.967352143E+01  -2.690794458E+01  -9.800625470E+01   9.967323211E-05
   1.247500000E-02   9.965337376E+01  -2.988707582E+01  -9.801937427E+01   9.965307622E-05
   1.247600000E-02   9.965245120E+01  -2.988679941E+01  -9.803215811E+01   9.965216512E-05
   1.247700000E-02   9.965152827E+01  -2.988652291E+01  -9.804381679E+01   9.965123512E-05
   1.247800000E-02   9.965059727E+01  -2.988624436E+01  -9.805446448E+01   9.965031011E-05
   1.247900000E-02   9.964966666E+01  -2.988596413E+01  -9.806418234E+01   9.964936551E-05
   1.248000000E-02   9.974581653E+01  -1.495293825E+01  -9.806927591E+01   9.974552052E-05
   1.248100000E-02   9.984477296E+01  -9.981149891E-03  -9.804096179E+01   9.984447901E-05
   1.248200000E-02   9.982219031E+01  -3.790479905E+00  -9.801736256E+01   9.982189802E-05
   1.248300000E-02   9.975508509E+01  -1.432936929E+01  -9.800461963E+01   9.975478875E-05
   1.248400000E-02   9.967348966E+01  -2.693776076E+01  -9.800619743E+01   9.967320034E-05
   1.248500000E-02   9.965353447E+01  -2.988712365E+01  -9.801929135E+01   9.965323680E-05
   1.248600000E-02   9.965261835E+01  -2.988684881E+01  -9.803206444E+01   9.965232488E-05
   1.248700000E-02   9.965168851E+01  -2.988657059E+01  -9.804370039E+01   9.965139483E-05
   1.248800000E-02   9.965075795E+01  -2.988629218E+01  -9.805432267E+01   9.965047064E-05
   1.248900000E-02   9.964982738E+01  -2.988601196E+01  -9.806401804E+01   9.964952609E-05
   1.249000000E-02   9.974590310E+01  -1.496429955E+01  -9.806910650E+01   9.974560695E-05
   1.249100000E-02   9.984493400E+01  -9.981165805E-03  -9.804077084E+01   9.984463989E-05
   1.249200000E-02   9.982222545E+01  -3.809734139E+00  -9.801717625E+01   9.982193312E-05
   1.249300000E-02   9.975510651E+01  -1.435024746E+01  -9.800445714E+01   9.975481017E-05
   1.249400000E-02   9.967348448E+01  -2.696235255E+01  -9.800604774E+01   9.967319517E-05
   1.249500000E-02   9.965368670E+01  -2.988716932E+01  -9.801913721E+01   9.965339577E-05
   1.249600000E-02   9.965277139E+01  -2.988689473E+01  -9.803189068E+01   9.965247849E-05
   1.249700000E-02   9.965184078E+01  -2.988661627E+01  -9.804352926E+01   9.965154730E-05
   1.249800000E-02   9.965091017E+01  -2.988633785E+01  -9.805412957E+01   9.965062307E-05
   1.249900000E-02   9.964997961E+01  -2.988605763E+01  -9.806382343E+01   9.964967852E-05
   1.250000000E-02   9.974643320E+01  -1.490620497E+01  -9.806888517E+01   9.974613724E-05
   1.250100000E-02   9.984508544E+01  -9.981181524E-03  -9.804056735E+01   9.984479155E-05
   1.250200000E-02   9.982228936E+01  -3.823177372E+00  -9.801697221E+01   9.982199708E-05
   1.250300000E-02   9.975509753E+01  -1.437480753E+01  -9.800425857E+01   9.975480119E-05
   1.250400000E-02   9.967350208E+01  -2.698241172E+01  -9.800586750E+01   9.967321276E-05
   1.250500000E-02   9.965383271E+01  -2.988721274E+01  -9.801895915E+01   9.965353907E-05
   1.250600000E-02   9.965291099E+01  -2.988693815E+01  -9.803166671E+01   9.965262252E-05
   1.250700000E-02   9.965198734E+01  -2.988666013E+01  -9.804330277E+01   9.965169913E-05
   1.250800000E-02   9.965105785E+01  -2.988638169E+01  -9.805390696E+01   9.965076294E-05
   1.250900000E-02   9.965012088E+01  -2.988610008E+01  -9.806359259E+01   9.964983068E-05
   1.251000000E-02   9.974605305E+01  -1.498706677E+01  -9.806869902E+01   9.974575767E-05
   1.251100000E-02   9.984523122E+01  -9.981195575E-03  -9.804035064E+01   9.984493516E-05
   1.251200000E-02   9.982231981E+01  -3.840753127E+00  -9.801675768E+01   9.982202771E-05
   1.251300000E-02   9.975511893E+01  -1.439329832E+01  -9.800407089E+01   9.975482260E-05
   1.251400000E-02   9.967347031E+01  -2.700873488E+01  -9.800570077E+01   9.967318099E-05
   1.251500000E-02   9.965396984E+01  -2.988725442E+01  -9.801878989E+01   9.965367638E-05
   1.251600000E-02   9.965305126E+01  -2.988697833E+01  -9.803147669E+01   9.965275983E-05
   1.251700000E-02   9.965212329E+01  -2.988670163E+01  -9.804309824E+01   9.965183117E-05
   1.251800000E-02   9.965119255E+01  -2.988642208E+01  -9.805369963E+01   9.965089989E-05
   1.251900000E-02   9.965026198E+01  -2.988614177E+01  -9.806338098E+01   9.964996879E-05
   1.252000000E-02   9.974656789E+01  -1.492897015E+01  -9.806848150E+01   9.974627341E-05
   1.252100000E-02   9.984536741E+01  -9.981209431E-03  -9.804015478E+01   9.984507227E-05
   1.252200000E-02   9.982235731E+01  -3.856110866E+00  -9.801655232E+01   9.982206548E-05
   1.252300000E-02   9.975508715E+01  -1.441910061E+01  -9.800387981E+01   9.975479081E-05
   1.252400000E-02   9.967351450E+01  -2.702244075E+01  -9.800552993E+01   9.967322518E-05
   1.252500000E-02   9.965410354E+01  -2.988729437E+01  -9.801862727E+01   9.965380699E-05
   1.252600000E-02   9.965318224E+01  -2.988701828E+01  -9.803130172E+01   9.965289044E-05
   1.252700000E-02   9.965225931E+01  -2.988674028E+01  -9.804291123E+01   9.965196818E-05
   1.252800000E-02   9.965133038E+01  -2.988646188E+01  -9.805350490E+01   9.965103292E-05
   1.252900000E-02   9.965039314E+01  -2.988618177E+01  -9.806318605E+01   9.965009958E-05
   1.253000000E-02   9.974662402E+01  -1.494031487E+01  -9.806828538E+01   9.974633081E-05
   1.253100000E-02   9.984549793E+01  -9.981222552E-03  -9.803993808E+01   9.984520678E-05
   1.253200000E-02   9.982240511E+01  -3.868788598E+00  -9.801635742E+01   9.982211366E-05
   1.253300000E-02   9.975513136E+01  -1.443215358E+01  -9.800370217E+01   9.975483503E-05
   1.253400000E-02   9.967348273E+01  -2.704691705E+01  -9.800537084E+01   9.967319341E-05
   1.253500000E-02   9.965422611E+01  -2.988733267E+01  -9.801845543E+01   9.965393846E-05
   1.253600000E-02   9.965331080E+01  -2.988705658E+01  -9.803112112E+01   9.965301619E-05
   1.253700000E-02   9.965238283E+01  -2.988677838E+01  -9.804273192E+01   9.965209169E-05
   1.253800000E-02   9.965145209E+01  -2.988649992E+01  -9.805331985E+01   9.965116197E-05
   1.253900000E-02   9.965051553E+01  -2.988622001E+01  -9.806299207E+01   9.965022515E-05
   1.254000000E-02   9.974667969E+01  -1.495173068E+01  -9.806809309E+01   9.974638412E-05
   1.254100000E-02   9.984562368E+01  -9.981235672E-03  -9.803973186E+01   9.984533129E-05
   1.254200000E-02   9.982242851E+01  -3.884462565E+00  -9.801615586E+01   9.982213755E-05
   1.254300000E-02   9.975509958E+01  -1.445621712E+01  -9.800351873E+01   9.975480324E-05
   1.254400000E-02   9.967347754E+01  -2.706648278E+01  -9.800521124E+01   9.967318823E-05
   1.254500000E-02   9.965435121E+01  -2.988736905E+01  -9.801829707E+01   9.965405536E-05
   1.254600000E-02   9.965342921E+01  -2.988709278E+01  -9.803098396E+01   9.965313853E-05
   1.254700000E-02   9.965250628E+01  -2.988681467E+01  -9.804257465E+01   9.965221587E-05
   1.254800000E-02   9.965157693E+01  -2.988653627E+01  -9.805315212E+01   9.965127982E-05
   1.254900000E-02   9.965063996E+01  -2.988625626E+01  -9.806282156E+01   9.965034756E-05
   1.255000000E-02   9.974672370E+01  -1.496318069E+01  -9.806790844E+01   9.974642992E-05
   1.255100000E-02   9.984574461E+01  -9.981247665E-03  -9.803955603E+01   9.984545384E-05
   1.255200000E-02   9.982248361E+01  -3.894423949E+00  -9.801598233E+01   9.982219314E-05
   1.255300000E-02   9.975509059E+01  -1.447593480E+01  -9.800335070E+01   9.975479425E-05
   1.255400000E-02   9.967349515E+01  -2.708178019E+01  -9.800505883E+01   9.967320584E-05
   1.255500000E-02   9.965446587E+01  -2.988740345E+01  -9.801814363E+01   9.965417695E-05
   1.255600000E-02   9.965354416E+01  -2.988712726E+01  -9.803081176E+01   9.965325050E-05
   1.255700000E-02   9.965262050E+01  -2.988685054E+01  -9.804241597E+01   9.965233090E-05
   1.255800000E-02   9.965169101E+01  -2.988657079E+01  -9.805298955E+01   9.965139587E-05
   1.255900000E-02   9.965075404E+01  -2.988629048E+01  -9.806265101E+01   9.965046361E-05
   1.256000000E-02   9.974676861E+01  -1.497448847E+01  -9.806773520E+01   9.974647299E-05
   1.256100000E-02   9.984586464E+01  -9.981258923E-03  -9.803936221E+01   9.984556835E-05
   1.256200000E-02   9.982250693E+01  -3.908996879E+00  -9.801579604E+01   9.982221476E-05
   1.256300000E-02   9.975511200E+01  -1.449012693E+01  -9.800318817E+01   9.975481567E-05
   1.256400000E-02   9.967346338E+01  -2.710387464E+01  -9.800491502E+01   9.967317407E-05
   1.256500000E-02   9.965457996E+01  -2.988743768E+01  -9.801800390E+01   9.965428574E-05
   1.256600000E-02   9.965365824E+01  -2.988716148E+01  -9.803066526E+01   9.965335927E-05
   1.256700000E-02   9.965272889E+01  -2.988688338E+01  -9.804225248E+01   9.965244040E-05
   1.256800000E-02   9.965179833E+01  -2.988660497E+01  -9.805282369E+01   9.965150552E-05
   1.256900000E-02   9.965086704E+01  -2.988632314E+01  -9.806248668E+01   9.965057864E-05
   1.257000000E-02   9.974725293E+01  -1.491638765E+01  -9.806754820E+01   9.974695963E-05
   1.257100000E-02   9.984597031E+01  -9.981269985E-03  -9.803920450E+01   9.984567908E-05
   1.257200000E-02   9.982253519E+01  -3.921491852E+00  -9.801562349E+01   9.982224372E-05
   1.257300000E-02   9.975508022E+01  -1.451186585E+01  -9.800302764E+01   9.975478388E-05
   1.257400000E-02   9.967350758E+01  -2.711358815E+01  -9.800476970E+01   9.967321826E-05
   1.257500000E-02   9.965468726E+01  -2.988746834E+01  -9.801785167E+01   9.965439304E-05
   1.257600000E-02   9.965376483E+01  -2.988719193E+01  -9.803052332E+01   9.965346819E-05
   1.257700000E-02   9.965283534E+01  -2.988691539E+01  -9.804210555E+01   9.965254918E-05
   1.257800000E-02   9.965190478E+01  -2.988663569E+01  -9.805266875E+01   9.965160817E-05
   1.257900000E-02   9.965097421E+01  -2.988635537E+01  -9.806232272E+01   9.965068087E-05
   1.258000000E-02   9.974683464E+01  -1.499724445E+01  -9.806740402E+01   9.974654368E-05
   1.258100000E-02   9.984607794E+01  -9.981280661E-03  -9.803902593E+01   9.984578631E-05
   1.258200000E-02   9.982257627E+01  -3.931394084E+00  -9.801546673E+01   9.982228550E-05
   1.258300000E-02   9.975512443E+01  -1.452103202E+01  -9.800288811E+01   9.975482810E-05
   1.258400000E-02   9.967347580E+01  -2.713423833E+01  -9.800464116E+01   9.967318649E-05
   1.258500000E-02   9.965478877E+01  -2.988749880E+01  -9.801771164E+01   9.965449570E-05
   1.258600000E-02   9.965386657E+01  -2.988722245E+01  -9.803036839E+01   9.965357254E-05
   1.258700000E-02   9.965293727E+01  -2.988694590E+01  -9.804194968E+01   9.965264856E-05
   1.258800000E-02   9.965200671E+01  -2.988666630E+01  -9.805250989E+01   9.965171882E-05
   1.258900000E-02   9.965106995E+01  -2.988638599E+01  -9.806215794E+01   9.965078180E-05
   1.259000000E-02   9.974731896E+01  -1.493914161E+01  -9.806723227E+01   9.974702304E-05
   1.259100000E-02   9.984617958E+01  -9.981290516E-03  -9.803886624E+01   9.984588322E-05
   1.259200000E-02   9.982260224E+01  -3.942902399E+00  -9.801530715E+01   9.982231008E-05
   1.259300000E-02   9.975509265E+01  -1.454137712E+01  -9.800273751E+01   9.975479631E-05
   1.259400000E-02   9.967352000E+01  -2.714258001E+01  -9.800450613E+01   9.967323540E-05
   1.259500000E-02   9.965488577E+01  -2.988752942E+01  -9.801758503E+01   9.965459428E-05
   1.259600000E-02   9.965396333E+01  -2.988725301E+01  -9.803024797E+01   9.965367090E-05
   1.259700000E-02   9.965304026E+01  -2.988697487E+01  -9.804182274E+01   9.965274694E-05
   1.259800000E-02   9.965210450E+01  -2.988669646E+01  -9.805237846E+01   9.965181088E-05
   1.259900000E-02   9.965117272E+01  -2.988641485E+01  -9.806201853E+01   9.965087862E-05
   1.260000000E-02   9.974733664E+01  -1.495052863E+01  -9.806708575E+01   9.974704376E-05
   1.260100000E-02   9.984627599E+01  -9.981300769E-03  -9.803871255E+01   9.984598517E-05
   1.260200000E-02   9.982264109E+01  -3.951855085E+00  -9.801516030E+01   9.982234974E-05
   1.260300000E-02   9.975508365E+01  -1.455751512E+01  -9.800260000E+01   9.975478731E-05
   1.260400000E-02   9.967349318E+01  -2.716192326E+01  -9.800438522E+01   9.967320364E-05
   1.260500000E-02   9.965497696E+01  -2.988755602E+01  -9.801746819E+01   9.965468124E-05
   1.260600000E-02   9.965405525E+01  -2.988727982E+01  -9.803011457E+01   9.965376469E-05
   1.260700000E-02   9.965313231E+01  -2.988700332E+01  -9.804168046E+01   9.965283591E-05
   1.260800000E-02   9.965220224E+01  -2.988672340E+01  -9.805223723E+01   9.965190408E-05
   1.260900000E-02   9.965126513E+01  -2.988644305E+01  -9.806188369E+01   9.965097285E-05
   1.261000000E-02   9.974736210E+01  -1.496189186E+01  -9.806694305E+01   9.974706463E-05
   1.261100000E-02   9.984637122E+01  -9.981310164E-03  -9.803855687E+01   9.984607784E-05
   1.261200000E-02   9.982265505E+01  -3.964041669E+00  -9.801501217E+01   9.982236461E-05
   1.261300000E-02   9.975510507E+01  -1.456828783E+01  -9.800247026E+01   9.975480874E-05
   1.261400000E-02   9.967348801E+01  -2.717658150E+01  -9.800426873E+01   9.967319846E-05
   1.261500000E-02   9.965506843E+01  -2.988758269E+01  -9.801734979E+01   9.965477574E-05
   1.261600000E-02   9.965414644E+01  -2.988730802E+01  -9.802999737E+01   9.965385280E-05
   1.261700000E-02   9.965321709E+01  -2.988703022E+01  -9.804155641E+01   9.965292898E-05
   1.261800000E-02   9.965228653E+01  -2.988675021E+01  -9.805210344E+01   9.965199904E-05
   1.261900000E-02   9.965135524E+01  -2.988646968E+01  -9.806174987E+01   9.965106109E-05
   1.262000000E-02   9.974782353E+01  -1.490378787E+01  -9.806679418E+01   9.974752944E-05
   1.262100000E-02   9.984645877E+01  -9.981318781E-03  -9.803842969E+01   9.984616675E-05
   1.262200000E-02   9.982270139E+01  -3.970546252E+00  -9.801488438E+01   9.982240968E-05
   1.262300000E-02   9.975509609E+01  -1.458320859E+01  -9.800234801E+01   9.975479975E-05
   1.262400000E-02   9.967350560E+01  -2.718716220E+01  -9.800415712E+01   9.967321605E-05
   1.262500000E-02   9.965515258E+01  -2.988760946E+01  -9.801723207E+01   9.965485600E-05
   1.262600000E-02   9.965423086E+01  -2.988733327E+01  -9.802986975E+01   9.965393945E-05
   1.262700000E-02   9.965330721E+01  -2.988705495E+01  -9.804143709E+01   9.965300995E-05
   1.262800000E-02   9.965237772E+01  -2.988677650E+01  -9.805197900E+01   9.965207871E-05
   1.262900000E-02   9.965144075E+01  -2.988649489E+01  -9.806161643E+01   9.965114761E-05
   1.263000000E-02   9.974738235E+01  -1.498464123E+01  -9.806667671E+01   9.974709166E-05
   1.263100000E-02   9.984654352E+01  -9.981327827E-03  -9.803828640E+01   9.984625215E-05
   1.263200000E-02   9.982271300E+01  -3.981917515E+00  -9.801474618E+01   9.982242230E-05
   1.263300000E-02   9.975511750E+01  -1.459281962E+01  -9.800222589E+01   9.975482116E-05
   1.263400000E-02   9.967347384E+01  -2.720474999E+01  -9.800405149E+01   9.967318429E-05
   1.263500000E-02   9.965523615E+01  -2.988763415E+01  -9.801713047E+01   9.965494295E-05
   1.263600000E-02   9.965431443E+01  -2.988735796E+01  -9.802976139E+01   9.965402029E-05
   1.263700000E-02   9.965338508E+01  -2.988707986E+01  -9.804131176E+01   9.965309646E-05
   1.263800000E-02   9.965245452E+01  -2.988680145E+01  -9.805185772E+01   9.965216653E-05
   1.263900000E-02   9.965151681E+01  -2.988651962E+01  -9.806149786E+01   9.965122858E-05
   1.264000000E-02   9.974784378E+01  -1.492653525E+01  -9.806653929E+01   9.974754919E-05
   1.264100000E-02   9.984662630E+01  -9.981335513E-03  -9.803817449E+01   9.984633378E-05
   1.264200000E-02   9.982273432E+01  -3.991323829E+00  -9.801461942E+01   9.982244246E-05
   1.264300000E-02   9.975508572E+01  -1.461018184E+01  -9.800211118E+01   9.975478938E-05
   1.264400000E-02   9.967351802E+01  -2.721015978E+01  -9.800394427E+01   9.967322847E-05
   1.264500000E-02   9.965531477E+01  -2.988765698E+01  -9.801702179E+01   9.965501914E-05
   1.264600000E-02   9.965439326E+01  -2.988738083E+01  -9.802963815E+01   9.965409667E-05
   1.264700000E-02   9.965346412E+01  -2.988710278E+01  -9.804118726E+01   9.965317285E-05
   1.264800000E-02   9.965253286E+01  -2.988682417E+01  -9.805173766E+01   9.965224240E-05
   1.264900000E-02   9.965159593E+01  -2.988654416E+01  -9.806136563E+01   9.965130523E-05
   1.265000000E-02   9.974785041E+01  -1.493786023E+01  -9.806641947E+01   9.974755574E-05
   1.265100000E-02   9.984670341E+01  -9.981343627E-03  -9.803803406E+01   9.984641190E-05
   1.265200000E-02   9.982276642E+01  -3.998230268E+00  -9.801450078E+01   9.982247568E-05
   1.265300000E-02   9.975512993E+01  -1.461515216E+01  -9.800200439E+01   9.975483359E-05
   1.265400000E-02   9.967348626E+01  -2.722668234E+01  -9.800384628E+01   9.967319671E-05
   1.265500000E-02   9.965539102E+01  -2.988767985E+01  -9.801691838E+01   9.965509186E-05
   1.265600000E-02   9.965446919E+01  -2.988740361E+01  -9.802953619E+01   9.965417499E-05
   1.265700000E-02   9.965354006E+01  -2.988712556E+01  -9.804108487E+01   9.965324661E-05
   1.265800000E-02   9.965260949E+01  -2.988684716E+01  -9.805162084E+01   9.965231551E-05
   1.265900000E-02   9.965167273E+01  -2.988656565E+01  -9.806124607E+01   9.965137850E-05
   1.266000000E-02   9.974784877E+01  -1.494928081E+01  -9.806630729E+01   9.974755440E-05
   1.266100000E-02   9.984678053E+01  -9.981351160E-03  -9.803790889E+01   9.984648820E-05
   1.266200000E-02   9.982277562E+01  -4.008498514E+00  -9.801437784E+01   9.982248383E-05
   1.266300000E-02   9.975509814E+01  -1.463147737E+01  -9.800189198E+01   9.975480180E-05
   1.266400000E-02   9.967353044E+01  -2.723107249E+01  -9.800374934E+01   9.967324089E-05
   1.266500000E-02   9.965600022E+01  -2.980684705E+01  -9.801655186E+01   9.965570507E-05
   1.266600000E-02   9.965456400E+01  -2.988743284E+01  -9.802919416E+01   9.965427225E-05
   1.266700000E-02   9.965363610E+01  -2.988715477E+01  -9.804076056E+01   9.965333898E-05
   1.266800000E-02   9.965270554E+01  -2.988687479E+01  -9.805130928E+01   9.965241260E-05
   1.266900000E-02   9.965176797E+01  -2.988659426E+01  -9.806096065E+01   9.965147006E-05
   1.267000000E-02   9.974787378E+01  -1.496071486E+01  -9.806601965E+01   9.974757481E-05
   1.267100000E-02   9.984687857E+01  -9.981360359E-03  -9.803764629E+01   9.984658165E-05
   1.267200000E-02   9.982282447E+01  -4.015601751E+00  -9.801413102E+01   9.982253129E-05
   1.267300000E-02   9.975508915E+01  -1.464729733E+01  -9.800165530E+01   9.975479281E-05
   1.267400000E-02   9.967349868E+01  -2.725010669E+01  -9.800354187E+01   9.967320913E-05
   1.267500000E-02   9.965607719E+01  -2.980916921E+01  -9.801634708E+01   9.965578454E-05
   1.267600000E-02   9.965465534E+01  -2.988745948E+01  -9.802900492E+01   9.965436063E-05
   1.267700000E-02   9.965372729E+01  -2.988718136E+01  -9.804057425E+01   9.965343193E-05
   1.267800000E-02   9.965279673E+01  -2.988690296E+01  -9.805112888E+01   9.965250683E-05
   1.267900000E-02   9.965185988E+01  -2.988662141E+01  -9.806077395E+01   9.965156500E-05
   1.268000000E-02   9.974789191E+01  -1.497203121E+01  -9.806584259E+01   9.974759598E-05
   1.268100000E-02   9.984697094E+01  -9.981369754E-03  -9.803745246E+01   9.984667433E-05
   1.268200000E-02   9.982283820E+01  -4.027571055E+00  -9.801395011E+01   9.982254593E-05
   1.268300000E-02   9.975511057E+01  -1.465771756E+01  -9.800150035E+01   9.975481423E-05
   1.268400000E-02   9.967346691E+01  -2.726849568E+01  -9.800340079E+01   9.967317737E-05
   1.268500000E-02   9.965615124E+01  -2.981172168E+01  -9.801621994E+01   9.965584909E-05
   1.268600000E-02   9.965474095E+01  -2.988748595E+01  -9.802886419E+01   9.965444701E-05
   1.268700000E-02   9.965381172E+01  -2.988720822E+01  -9.804043076E+01   9.965351374E-05
   1.268800000E-02   9.965288045E+01  -2.988692802E+01  -9.805098761E+01   9.965259266E-05
   1.268900000E-02   9.965194344E+01  -2.988664767E+01  -9.806063269E+01   9.965165195E-05
   1.269000000E-02   9.974835335E+01  -1.491392593E+01  -9.806568610E+01   9.974806079E-05
   1.269100000E-02   9.984705372E+01  -9.981378022E-03  -9.803732242E+01   9.984675596E-05
   1.269200000E-02   9.982285947E+01  -4.037476413E+00  -9.801380275E+01   9.982256604E-05
   1.269300000E-02   9.975507878E+01  -1.467577282E+01  -9.800136813E+01   9.975478244E-05
   1.269400000E-02   9.967351110E+01  -2.727458292E+01  -9.800327828E+01   9.967322155E-05
   1.269500000E-02   9.965621615E+01  -2.981375539E+01  -9.801610451E+01   9.965592309E-05
   1.269600000E-02   9.965482333E+01  -2.988751069E+01  -9.802875391E+01   9.965453412E-05
   1.269700000E-02   9.965389528E+01  -2.988723290E+01  -9.804031446E+01   9.965360069E-05
   1.269800000E-02   9.965296472E+01  -2.988695293E+01  -9.805086161E+01   9.965267432E-05
   1.269900000E-02   9.965202787E+01  -2.988667261E+01  -9.806050548E+01   9.965173250E-05
   1.270000000E-02   9.974791217E+01  -1.499477977E+01  -9.806557244E+01   9.974761574E-05
   1.270100000E-02   9.984713847E+01  -9.981386486E-03  -9.803718486E+01   9.984684408E-05
   1.270200000E-02   9.982289396E+01  -4.044781113E+00  -9.801368410E+01   9.982260154E-05
   1.270300000E-02   9.975512300E+01  -1.468133140E+01  -9.800125596E+01   9.975482666E-05
   1.270400000E-02   9.967347933E+01  -2.729167855E+01  -9.800318031E+01   9.967318978E-05
   1.270500000E-02   9.965628396E+01  -2.981607317E+01  -9.801601056E+01   9.965598769E-05
   1.270600000E-02   9.965490131E+01  -2.988753402E+01  -9.802865001E+01   9.965460850E-05
   1.270700000E-02   9.965397137E+01  -2.988725573E+01  -9.804021156E+01   9.965367324E-05
   1.270800000E-02   9.965304065E+01  -2.988697570E+01  -9.805075884E+01   9.965275272E-05
   1.270900000E-02   9.965210380E+01  -2.988669539E+01  -9.806038977E+01   9.965181216E-05
   1.271000000E-02   9.974836597E+01  -1.493667251E+01  -9.806544647E+01   9.974807327E-05
   1.271100000E-02   9.984721436E+01  -9.981394246E-03  -9.803706809E+01   9.984691644E-05
   1.271200000E-02   9.982291294E+01  -4.053796315E+00  -9.801356498E+01   9.982261946E-05
   1.271300000E-02   9.975509121E+01  -1.469812783E+01  -9.800114892E+01   9.975479487E-05
   1.271400000E-02   9.967352352E+01  -2.729652931E+01  -9.800308067E+01   9.967323396E-05
   1.271500000E-02   9.965633981E+01  -2.981820979E+01  -9.801592205E+01   9.965604691E-05
   1.271600000E-02   9.965497590E+01  -2.988755680E+01  -9.802855702E+01   9.965468691E-05
   1.271700000E-02   9.965404801E+01  -2.988727872E+01  -9.804010807E+01   9.965375363E-05
   1.271800000E-02   9.965311745E+01  -2.988699874E+01  -9.805064775E+01   9.965282725E-05
   1.271900000E-02   9.965217988E+01  -2.988671822E+01  -9.806028511E+01   9.965188471E-05
   1.272000000E-02   9.974836847E+01  -1.494804452E+01  -9.806533810E+01   9.974807224E-05
   1.272100000E-02   9.984729073E+01  -9.981401705E-03  -9.803695254E+01   9.984699383E-05
   1.272200000E-02   9.982294520E+01  -4.060243672E+00  -9.801346158E+01   9.982265284E-05
   1.272300000E-02   9.975508222E+01  -1.471078337E+01  -9.800104652E+01   9.975478588E-05
   1.272400000E-02   9.967349175E+01  -2.731244393E+01  -9.800299302E+01   9.967320220E-05
   1.272500000E-02   9.965640405E+01  -2.982000520E+01  -9.801582541E+01   9.965610224E-05
   1.272600000E-02   9.965504640E+01  -2.988757793E+01  -9.802845871E+01   9.965475288E-05
   1.272700000E-02   9.965411647E+01  -2.988729964E+01  -9.804001909E+01   9.965381890E-05
   1.272800000E-02   9.965318575E+01  -2.988701962E+01  -9.805055394E+01   9.965289838E-05
   1.272900000E-02   9.965224890E+01  -2.988673930E+01  -9.806018234E+01   9.965195183E-05
   1.273000000E-02   9.974836333E+01  -1.495941726E+01  -9.806523355E+01   9.974806756E-05
   1.273100000E-02   9.984736022E+01  -9.981408888E-03  -9.803683786E+01   9.984706286E-05
   1.273200000E-02   9.982295189E+01  -4.070070160E+00  -9.801334630E+01   9.982265858E-05
   1.273300000E-02   9.975510364E+01  -1.471813734E+01  -9.800095260E+01   9.975480730E-05
   1.273400000E-02   9.967348657E+01  -2.732373551E+01  -9.800290706E+01   9.967319702E-05
   1.273500000E-02   9.965645937E+01  -2.982200026E+01  -9.801574672E+01   9.965616094E-05
   1.273600000E-02   9.965511471E+01  -2.988759689E+01  -9.802837965E+01   9.965481929E-05
   1.273700000E-02   9.965418548E+01  -2.988731882E+01  -9.803992457E+01   9.965389074E-05
   1.273800000E-02   9.965325492E+01  -2.988704041E+01  -9.805045677E+01   9.965296564E-05
   1.273900000E-02   9.965231735E+01  -2.988676022E+01  -9.806008664E+01   9.965202310E-05
   1.274000000E-02   9.974880950E+01  -1.490130793E+01  -9.806512282E+01   9.974851418E-05
   1.274100000E-02   9.984742774E+01  -9.981415293E-03  -9.803675074E+01   9.984713175E-05
   1.274200000E-02   9.982299189E+01  -4.074120649E+00  -9.801325890E+01   9.982269981E-05
   1.274300000E-02   9.975509465E+01  -1.472970415E+01  -9.800085783E+01   9.975479832E-05
   1.274400000E-02   9.967350417E+01  -2.733101505E+01  -9.800282097E+01   9.967321462E-05
   1.274500000E-02   9.965651150E+01  -2.982355550E+01  -9.801566181E+01   9.965621674E-05
   1.274600000E-02   9.965517554E+01  -2.988761590E+01  -9.802829988E+01   9.965488456E-05
   1.274700000E-02   9.965425245E+01  -2.988733936E+01  -9.803984507E+01   9.965394985E-05
   1.274800000E-02   9.965331693E+01  -2.988705971E+01  -9.805037059E+01   9.965302948E-05
   1.274900000E-02   9.965238503E+01  -2.988677940E+01  -9.805999150E+01   9.965208294E-05
   1.275000000E-02   9.974834544E+01  -1.498215920E+01  -9.806504732E+01   9.974805093E-05
   1.275100000E-02   9.984748960E+01  -9.981421894E-03  -9.803664369E+01   9.984719351E-05
   1.275200000E-02   9.982299625E+01  -4.083222106E+00  -9.801315659E+01   9.982270332E-05
   1.275300000E-02   9.975511606E+01  -1.473602549E+01  -9.800077381E+01   9.975481973E-05
   1.275400000E-02   9.967347240E+01  -2.734536378E+01  -9.800274591E+01   9.967318286E-05
   1.275500000E-02   9.965656058E+01  -2.982536690E+01  -9.801559704E+01   9.965626348E-05
   1.275600000E-02   9.965523692E+01  -2.988763508E+01  -9.802822021E+01   9.965494912E-05
   1.275700000E-02   9.965431399E+01  -2.988735701E+01  -9.803975634E+01   9.965401585E-05
   1.275800000E-02   9.965337775E+01  -2.988707682E+01  -9.805028901E+01   9.965308876E-05
   1.275900000E-02   9.965243941E+01  -2.988679646E+01  -9.805991126E+01   9.965214678E-05
   1.276000000E-02   9.974878398E+01  -1.492404982E+01  -9.806494423E+01   9.974849028E-05
   1.276100000E-02   9.984754949E+01  -9.981428299E-03  -9.803656707E+01   9.984725786E-05
   1.276200000E-02   9.982301060E+01  -4.090364058E+00  -9.801306264E+01   9.982271901E-05
   1.276300000E-02   9.975508428E+01  -1.475016511E+01  -9.800068968E+01   9.975478794E-05
   1.276400000E-02   9.967351659E+01  -2.734760486E+01  -9.800266913E+01   9.967322704E-05
   1.276500000E-02   9.965661021E+01  -2.982703109E+01  -9.801552513E+01   9.965631078E-05
   1.276600000E-02   9.965529760E+01  -2.988765214E+01  -9.802814876E+01   9.965500697E-05
   1.276700000E-02   9.965436837E+01  -2.988737407E+01  -9.803968446E+01   9.965407369E-05
   1.276800000E-02   9.965343781E+01  -2.988709566E+01  -9.805020880E+01   9.965314732E-05
   1.276900000E-02   9.965250095E+01  -2.988681411E+01  -9.805982355E+01   9.965220550E-05
   1.277000000E-02   9.974877161E+01  -1.493535978E+01  -9.806486255E+01   9.974847508E-05
   1.277100000E-02   9.984761135E+01  -9.981433969E-03  -9.803646764E+01   9.984731415E-05
   1.277200000E-02   9.982303836E+01  -4.095010842E+00  -9.801298213E+01   9.982274592E-05
   1.277300000E-02   9.975512849E+01  -1.475199814E+01  -9.800061562E+01   9.975483216E-05
   1.277400000E-02   9.967348482E+01  -2.736103525E+01  -9.800260439E+01   9.967319528E-05
   1.277500000E-02   9.965665546E+01  -2.982840740E+01  -9.801545767E+01   9.965635399E-05
   1.277600000E-02   9.965535150E+01  -2.988766946E+01  -9.802807469E+01   9.965505839E-05
   1.277700000E-02   9.965442156E+01  -2.988739117E+01  -9.803961207E+01   9.965412441E-05
   1.277800000E-02   9.965349085E+01  -2.988711115E+01  -9.805013024E+01   9.965319789E-05
   1.277900000E-02   9.965255399E+01  -2.988683083E+01  -9.805974960E+01   9.965225606E-05
   1.278000000E-02   9.974875083E+01  -1.494678985E+01  -9.806478089E+01   9.974845183E-05
   1.278100000E-02   9.984766557E+01  -9.981439639E-03  -9.803637298E+01   9.984736863E-05
   1.278200000E-02   9.982304035E+01  -4.103157912E+00  -9.801289508E+01   9.982274717E-05
   1.278300000E-02   9.975509671E+01  -1.476524894E+01  -9.800053608E+01   9.975480037E-05
   1.278400000E-02   9.967352901E+01  -2.736240350E+01  -9.800253027E+01   9.967323946E-05
   1.278500000E-02   9.965669881E+01  -2.982991517E+01  -9.801539205E+01   9.965639530E-05
   1.278600000E-02   9.965540455E+01  -2.988768461E+01  -9.802801087E+01   9.965510897E-05
   1.278700000E-02   9.965447532E+01  -2.988740653E+01  -9.803953911E+01   9.965417569E-05
   1.278800000E-02   9.965354476E+01  -2.988712656E+01  -9.805005597E+01   9.965325532E-05
   1.278900000E-02   9.965260719E+01  -2.988684603E+01  -9.805967679E+01   9.965230805E-05
   1.279000000E-02   9.974873013E+01  -1.495820507E+01  -9.806470687E+01   9.974842866E-05
   1.279100000E-02   9.984771784E+01  -9.981444182E-03  -9.803631162E+01   9.984741843E-05
   1.279200000E-02   9.982307593E+01  -4.105569365E+00  -9.801283056E+01   9.982278200E-05
   1.279300000E-02   9.975508772E+01  -1.477453548E+01  -9.800046421E+01   9.975479138E-05
   1.279400000E-02   9.967349724E+01  -2.737500645E+01  -9.800247048E+01   9.967320769E-05
   1.279500000E-02   9.965673771E+01  -2.983115302E+01  -9.801532592E+01   9.965643846E-05
   1.279600000E-02   9.965545012E+01  -2.988769980E+01  -9.802795266E+01   9.965515970E-05
   1.279700000E-02   9.965452703E+01  -2.988742168E+01  -9.803947620E+01   9.965422626E-05
   1.279800000E-02   9.965359151E+01  -2.988714171E+01  -9.804999134E+01   9.965329989E-05
   1.279900000E-02   9.965265961E+01  -2.988686139E+01  -9.805959825E+01   9.965235807E-05
   1.280000000E-02   9.974870241E+01  -1.496952803E+01  -9.806464045E+01   9.974840610E-05
   1.280100000E-02   9.984776444E+01  -9.981449852E-03  -9.803622459E+01   9.984747017E-05
   1.280200000E-02   9.982307559E+01  -4.113153736E+00  -9.801274581E+01   9.982278321E-05
   1.280300000E-02   9.975510913E+01  -1.477868804E+01  -9.800040078E+01   9.975481280E-05
   1.280400000E-02   9.967346548E+01  -2.738722520E+01  -9.800241833E+01   9.967317593E-05
   1.280500000E-02   9.965677431E+01  -2.983257079E+01  -9.801527775E+01   9.965647931E-05
   1.280600000E-02   9.965549624E+01  -2.988771326E+01  -9.802788824E+01   9.965520497E-05
   1.280700000E-02   9.965457331E+01  -2.988743519E+01  -9.803940903E+01   9.965427642E-05
   1.280800000E-02   9.965364337E+01  -2.988715657E+01  -9.804992635E+01   9.965335061E-05
   1.280900000E-02   9.965270636E+01  -2.988687497E+01  -9.805953327E+01   9.965240863E-05
   1.281000000E-02   9.974912952E+01  -1.491141562E+01  -9.806456024E+01   9.974883453E-05
   1.281100000E-02   9.984781193E+01  -9.981454394E-03  -9.803617086E+01   9.984751724E-05
   1.281200000E-02   9.982308533E+01  -4.118842638E+00  -9.801267474E+01   9.982279450E-05
   1.281300000E-02   9.975507735E+01  -1.479076698E+01  -9.800033422E+01   9.975478101E-05
   1.281400000E-02   9.967350966E+01  -2.738744024E+01  -9.800235183E+01   9.967322011E-05
   1.281500000E-02   9.965681365E+01  -2.983363112E+01  -9.801521572E+01   9.965651690E-05
   1.281600000E-02   9.965554181E+01  -2.988772655E+01  -9.802783136E+01   9.965525442E-05
   1.281700000E-02   9.965461872E+01  -2.988744843E+01  -9.803935240E+01   9.965432099E-05
   1.281800000E-02   9.965368321E+01  -2.988717002E+01  -9.804986140E+01   9.965339462E-05
   1.281900000E-02   9.965275131E+01  -2.988688847E+01  -9.805946711E+01   9.965245280E-05
   1.282000000E-02   9.974865017E+01  -1.499226434E+01  -9.806450763E+01   9.974835310E-05
   1.282100000E-02   9.984785567E+01  -9.981458551E-03  -9.803609146E+01   9.984756444E-05
   1.282200000E-02   9.982310858E+01  -4.122092917E+00  -9.801261713E+01   9.982281711E-05
   1.282300000E-02   9.975512156E+01  -1.479064024E+01  -9.800027768E+01   9.975482523E-05
   1.282400000E-02   9.967347790E+01  -2.739894725E+01  -9.800230236E+01   9.967318580E-05
   1.282500000E-02   9.965685028E+01  -2.983492052E+01  -9.801516756E+01   9.965655178E-05
   1.282600000E-02   9.965558793E+01  -2.988774000E+01  -9.802777325E+01   9.965529242E-05
   1.282700000E-02   9.965465800E+01  -2.988746172E+01  -9.803930156E+01   9.965436316E-05
   1.282800000E-02   9.965372728E+01  -2.988718169E+01  -9.804980573E+01   9.965343792E-05
   1.282900000E-02   9.965279043E+01  -2.988690138E+01  -9.805940976E+01   9.965249009E-05
   1.283000000E-02   9.974906965E+01  -1.493415189E+01  -9.806443505E+01   9.974877062E-05
   1.283100000E-02   9.984790030E+01  -9.981462744E-03  -9.803604060E+01   9.984760423E-05
   1.283200000E-02   9.982311832E+01  -4.127293783E+00  -9.801254607E+01   9.982282621E-05
   1.283300000E-02   9.975508978E+01  -1.480203079E+01  -9.800021646E+01   9.975479344E-05
   1.283400000E-02   9.967352208E+01  -2.739848653E+01  -9.800224844E+01   9.967322998E-05
   1.283500000E-02   9.965688111E+01  -2.983609723E+01  -9.801511853E+01   9.965658114E-05
   1.283600000E-02   9.965562572E+01  -2.988775134E+01  -9.802772468E+01   9.965533445E-05
   1.283700000E-02   9.965470279E+01  -2.988747327E+01  -9.803923757E+01   9.965440117E-05
[...]
   2.478400000E-02   9.967134434E+01  -8.141821387E+00  -9.817322338E+01   2.998119885E+01
   2.478500000E-02   9.959188304E+01  -2.040770962E+01  -9.817420666E+01   2.998354568E+01
   2.478600000E-02   9.953205839E+01  -2.949594941E+01  -9.818832671E+01   2.997213297E+01
   2.478700000E-02   9.952847664E+01  -2.984961781E+01  -9.820700551E+01   2.995426248E+01
   2.478800000E-02   9.952717499E+01  -2.984922756E+01  -9.822418315E+01   2.993620014E+01
   2.478900000E-02   9.952587067E+01  -2.984883665E+01  -9.823983686E+01   2.991805358E+01
   2.479000000E-02   9.962152826E+01  -1.495450975E+01  -9.825037418E+01   2.990370403E+01
   2.479100000E-02   9.972003087E+01  -9.968680338E-03  -9.822694177E+01   2.992425960E+01
   2.479200000E-02   9.972152030E+01  -9.968829272E-03  -9.820553948E+01   2.994489796E+01
   2.479300000E-02   9.972301530E+01  -9.968978899E-03  -9.818599819E+01   2.996563991E+01
   2.479400000E-02   9.967138470E+01  -8.135525139E+00  -9.817322885E+01   2.998119164E+01
   2.479500000E-02   9.959182084E+01  -2.041727068E+01  -9.817421103E+01   2.998354388E+01
   2.479600000E-02   9.953206621E+01  -2.949484970E+01  -9.818831626E+01   2.997214234E+01
   2.479700000E-02   9.952847734E+01  -2.984961802E+01  -9.820699546E+01   2.995427223E+01
   2.479800000E-02   9.952717569E+01  -2.984922778E+01  -9.822417400E+01   2.993620993E+01
   2.479900000E-02   9.952587138E+01  -2.984883686E+01  -9.823982852E+01   2.991806342E+01
   2.480000000E-02   9.962190589E+01  -1.489642989E+01  -9.825036463E+01   2.990371201E+01
   2.480100000E-02   9.972003007E+01  -9.968680257E-03  -9.822695406E+01   2.992424846E+01
   2.480200000E-02   9.972152144E+01  -9.968829386E-03  -9.820552358E+01   2.994491372E+01
   2.480300000E-02   9.972301728E+01  -9.968979097E-03  -9.818597313E+01   2.996566734E+01
   2.480400000E-02   9.967128632E+01  -8.150874407E+00  -9.817321551E+01   2.998120921E+01
   2.480500000E-02   9.959181948E+01  -2.041748100E+01  -9.817421113E+01   2.998354384E+01
   2.480600000E-02   9.953206462E+01  -2.949507345E+01  -9.818831839E+01   2.997214044E+01
   2.480700000E-02   9.952847803E+01  -2.984961823E+01  -9.820698541E+01   2.995428198E+01
   2.480800000E-02   9.952717640E+01  -2.984922799E+01  -9.822416485E+01   2.993621973E+01
   2.480900000E-02   9.952587209E+01  -2.984883707E+01  -9.823982018E+01   2.991807326E+01
   2.481000000E-02   9.962137848E+01  -1.497754602E+01  -9.825037797E+01   2.990370086E+01
   2.481100000E-02   9.972003098E+01  -9.968680350E-03  -9.822693994E+01   2.992426126E+01
   2.481200000E-02   9.972152147E+01  -9.968829388E-03  -9.820552324E+01   2.994491406E+01
   2.481300000E-02   9.972301647E+01  -9.968979016E-03  -9.818598341E+01   2.996565609E+01
   2.481400000E-02   9.967132667E+01  -8.144577493E+00  -9.817322099E+01   2.998120200E+01
   2.481500000E-02   9.959186369E+01  -2.041068486E+01  -9.817420802E+01   2.998354512E+01
   2.481600000E-02   9.953207242E+01  -2.949397649E+01  -9.818830797E+01   2.997214978E+01
   2.481700000E-02   9.952847675E+01  -2.984961784E+01  -9.820700388E+01   2.995426406E+01
   2.481800000E-02   9.952717468E+01  -2.984922747E+01  -9.822418716E+01   2.993619585E+01
   2.481900000E-02   9.952587036E+01  -2.984883656E+01  -9.823984051E+01   2.991804927E+01
   2.482000000E-02   9.962175705E+01  -1.491932240E+01  -9.825036840E+01   2.990370887E+01
   2.482100000E-02   9.972003122E+01  -9.968680373E-03  -9.822693639E+01   2.992426447E+01
   2.482200000E-02   9.972152066E+01  -9.968829307E-03  -9.820553454E+01   2.994490286E+01
   2.482300000E-02   9.972301566E+01  -9.968978935E-03  -9.818599369E+01   2.996564484E+01
   2.482400000E-02   9.967136703E+01  -8.138281913E+00  -9.817322646E+01   2.998119479E+01
   2.482500000E-02   9.959190790E+01  -2.040388929E+01  -9.817420491E+01   2.998354640E+01
   2.482600000E-02   9.953206279E+01  -2.949533083E+01  -9.818832084E+01   2.997213824E+01
   2.482700000E-02   9.952847703E+01  -2.984961793E+01  -9.820699986E+01   2.995426796E+01
   2.482800000E-02   9.952717538E+01  -2.984922768E+01  -9.822417801E+01   2.993620565E+01
   2.482900000E-02   9.952587107E+01  -2.984883677E+01  -9.823983217E+01   2.991805911E+01
   2.483000000E-02   9.962213682E+01  -1.486091368E+01  -9.825035879E+01   2.990371689E+01
   2.483100000E-02   9.972003042E+01  -9.968680292E-03  -9.822694868E+01   2.992425333E+01
   2.483200000E-02   9.972151985E+01  -9.968829227E-03  -9.820554584E+01   2.994489166E+01
   2.483300000E-02   9.972301680E+01  -9.968979049E-03  -9.818597922E+01   2.996566068E+01
   2.483400000E-02   9.967126865E+01  -8.153631181E+00  -9.817321312E+01   2.998121237E+01
   2.483500000E-02   9.959180012E+01  -2.042045653E+01  -9.817421249E+01   2.998354328E+01
   2.483600000E-02   9.953207061E+01  -2.949423045E+01  -9.818831039E+01   2.997214761E+01
   2.483700000E-02   9.952847773E+01  -2.984961814E+01  -9.820698981E+01   2.995427771E+01
   2.483800000E-02   9.952717609E+01  -2.984922789E+01  -9.822416886E+01   2.993621544E+01
   2.483900000E-02   9.952587178E+01  -2.984883698E+01  -9.823982383E+01   2.991806895E+01
   2.484000000E-02   9.962160940E+01  -1.494202982E+01  -9.825037213E+01   2.990370574E+01
   2.484100000E-02   9.972003134E+01  -9.968680385E-03  -9.822693455E+01   2.992426615E+01
   2.484200000E-02   9.972152182E+01  -9.968829423E-03  -9.820551829E+01   2.994491896E+01
   2.484300000E-02   9.972301682E+01  -9.968979051E-03  -9.818597891E+01   2.996566102E+01
   2.484400000E-02   9.967130900E+01  -8.147334933E+00  -9.817321859E+01   2.998120516E+01
   2.484500000E-02   9.959184433E+01  -2.041366067E+01  -9.817420938E+01   2.998354456E+01
   2.484600000E-02   9.953206901E+01  -2.949445716E+01  -9.818831253E+01   2.997214569E+01
   2.484700000E-02   9.952847843E+01  -2.984961835E+01  -9.820697976E+01   2.995428746E+01
   2.484800000E-02   9.952717479E+01  -2.984922751E+01  -9.822418567E+01   2.993619744E+01
   2.484900000E-02   9.952587006E+01  -2.984883647E+01  -9.823984417E+01   2.991804497E+01
   2.485000000E-02   9.962198583E+01  -1.488413506E+01  -9.825036261E+01   2.990371370E+01
   2.485100000E-02   9.972003053E+01  -9.968680304E-03  -9.822694686E+01   2.992425498E+01
   2.485200000E-02   9.972152101E+01  -9.968829343E-03  -9.820552959E+01   2.994490776E+01
   2.485300000E-02   9.972301601E+01  -9.968978970E-03  -9.818598919E+01   2.996564976E+01
   2.485400000E-02   9.967134936E+01  -8.141038686E+00  -9.817322406E+01   2.998119795E+01
   2.485500000E-02   9.959188854E+01  -2.040686482E+01  -9.817420627E+01   2.998354584E+01
   2.485600000E-02   9.953205936E+01  -2.949581329E+01  -9.818832541E+01   2.997213414E+01
   2.485700000E-02   9.952847672E+01  -2.984961784E+01  -9.820700426E+01   2.995426369E+01
   2.485800000E-02   9.952717507E+01  -2.984922759E+01  -9.822418201E+01   2.993620136E+01
   2.485900000E-02   9.952587076E+01  -2.984883668E+01  -9.823983583E+01   2.991805481E+01
   2.486000000E-02   9.962146330E+01  -1.496450012E+01  -9.825037583E+01   2.990370266E+01
   2.486100000E-02   9.972003077E+01  -9.968680328E-03  -9.822694330E+01   2.992425821E+01
   2.486200000E-02   9.972152020E+01  -9.968829262E-03  -9.820554089E+01   2.994489656E+01
   2.486300000E-02   9.972301520E+01  -9.968978889E-03  -9.818599947E+01   2.996563851E+01
   2.486400000E-02   9.967129256E+01  -8.149900598E+00  -9.817321636E+01   2.998120810E+01
   2.486500000E-02   9.959178076E+01  -2.042343205E+01  -9.817421385E+01   2.998354272E+01
   2.486600000E-02   9.953206719E+01  -2.949471291E+01  -9.818831496E+01   2.997214351E+01
   2.486700000E-02   9.952847742E+01  -2.984961805E+01  -9.820699421E+01   2.995427344E+01
   2.486800000E-02   9.952717578E+01  -2.984922780E+01  -9.822417286E+01   2.993621115E+01
   2.486900000E-02   9.952587147E+01  -2.984883689E+01  -9.823982749E+01   2.991806465E+01
   2.487000000E-02   9.962184033E+01  -1.490651362E+01  -9.825036629E+01   2.990371063E+01
   2.487100000E-02   9.972002997E+01  -9.968680247E-03  -9.822695559E+01   2.992424707E+01
   2.487200000E-02   9.972152134E+01  -9.968829376E-03  -9.820552499E+01   2.994491233E+01
   2.487300000E-02   9.972301718E+01  -9.968979087E-03  -9.818597440E+01   2.996566595E+01
   2.487400000E-02   9.967129134E+01  -8.150091706E+00  -9.817321619E+01   2.998120832E+01
   2.487500000E-02   9.959182497E+01  -2.041663619E+01  -9.817421074E+01   2.998354400E+01
   2.487600000E-02   9.953206559E+01  -2.949493717E+01  -9.818831709E+01   2.997214160E+01
   2.487700000E-02   9.952847812E+01  -2.984961826E+01  -9.820698416E+01   2.995428319E+01
   2.487800000E-02   9.952717649E+01  -2.984922801E+01  -9.822416371E+01   2.993622095E+01
   2.487900000E-02   9.952587218E+01  -2.984883710E+01  -9.823981915E+01   2.991807449E+01
   2.488000000E-02   9.962131292E+01  -1.498762976E+01  -9.825037963E+01   2.990369948E+01
   2.488100000E-02   9.972003089E+01  -9.968680340E-03  -9.822694147E+01   2.992425987E+01
   2.488200000E-02   9.972152136E+01  -9.968829378E-03  -9.820552464E+01   2.994491267E+01
   2.488300000E-02   9.972301637E+01  -9.968979006E-03  -9.818598469E+01   2.996565469E+01
   2.488400000E-02   9.967133169E+01  -8.143795459E+00  -9.817322167E+01   2.998120111E+01
   2.488500000E-02   9.959186918E+01  -2.040984034E+01  -9.817420763E+01   2.998354528E+01
   2.488600000E-02   9.953207339E+01  -2.949384088E+01  -9.818830668E+01   2.997215094E+01
   2.488700000E-02   9.952847684E+01  -2.984961787E+01  -9.820700263E+01   2.995426528E+01
   2.488800000E-02   9.952717477E+01  -2.984922750E+01  -9.822418602E+01   2.993619707E+01
   2.488900000E-02   9.952587045E+01  -2.984883658E+01  -9.823983948E+01   2.991805050E+01
   2.489000000E-02   9.962169209E+01  -1.492931277E+01  -9.825037004E+01   2.990370749E+01
   2.489100000E-02   9.972003112E+01  -9.968680363E-03  -9.822693792E+01   2.992426309E+01
   2.489200000E-02   9.972152055E+01  -9.968829297E-03  -9.820553594E+01   2.994490147E+01
   2.489300000E-02   9.972301556E+01  -9.968978924E-03  -9.818599497E+01   2.996564344E+01
   2.489400000E-02   9.967137205E+01  -8.137499212E+00  -9.817322714E+01   2.998119390E+01
   2.489500000E-02   9.959191339E+01  -2.040304448E+01  -9.817420452E+01   2.998354656E+01
   2.489600000E-02   9.953206376E+01  -2.949519471E+01  -9.818831954E+01   2.997213941E+01
   2.489700000E-02   9.952847712E+01  -2.984961795E+01  -9.820699861E+01   2.995426917E+01
   2.489800000E-02   9.952717547E+01  -2.984922771E+01  -9.822417687E+01   2.993620686E+01
   2.489900000E-02   9.952587116E+01  -2.984883680E+01  -9.823983114E+01   2.991806034E+01
   2.490000000E-02   9.962207125E+01  -1.487099742E+01  -9.825036045E+01   2.990371551E+01
   2.490100000E-02   9.972003032E+01  -9.968680282E-03  -9.822695021E+01   2.992425195E+01
   2.490200000E-02   9.972151974E+01  -9.968829217E-03  -9.820554724E+01   2.994489027E+01
   2.490300000E-02   9.972301670E+01  -9.968979039E-03  -9.818598050E+01   2.996565928E+01
   2.490400000E-02   9.967127367E+01  -8.152848480E+00  -9.817321380E+01   2.998121147E+01
   2.490500000E-02   9.959180561E+01  -2.041961172E+01  -9.817421211E+01   2.998354344E+01
   2.490600000E-02   9.953207159E+01  -2.949409433E+01  -9.818830909E+01   2.997214878E+01
   2.490700000E-02   9.952847782E+01  -2.984961816E+01  -9.820698856E+01   2.995427892E+01
   2.490800000E-02   9.952717618E+01  -2.984922792E+01  -9.822416772E+01   2.993621666E+01
   2.490900000E-02   9.952587187E+01  -2.984883701E+01  -9.823982280E+01   2.991807018E+01
   2.491000000E-02   9.962154384E+01  -1.495211356E+01  -9.825037379E+01   2.990370436E+01
   2.491100000E-02   9.972003124E+01  -9.968680375E-03  -9.822693608E+01   2.992426476E+01
   2.491200000E-02   9.972152172E+01  -9.968829413E-03  -9.820551970E+01   2.994491757E+01
   2.491300000E-02   9.972301672E+01  -9.968979041E-03  -9.818598018E+01   2.996565962E+01
   2.491400000E-02   9.967131402E+01  -8.146552232E+00  -9.817321927E+01   2.998120426E+01
   2.491500000E-02   9.959184983E+01  -2.041281586E+01  -9.817420899E+01   2.998354472E+01
   2.491600000E-02   9.953206998E+01  -2.949432021E+01  -9.818831124E+01   2.997214685E+01
   2.491700000E-02   9.952847851E+01  -2.984961837E+01  -9.820697851E+01   2.995428867E+01
   2.491800000E-02   9.952717488E+01  -2.984922753E+01  -9.822418453E+01   2.993619866E+01
   2.491900000E-02   9.952587014E+01  -2.984883649E+01  -9.823984313E+01   2.991804619E+01
   2.492000000E-02   9.962192087E+01  -1.489412542E+01  -9.825036425E+01   2.990371233E+01
   2.492100000E-02   9.972003043E+01  -9.968680294E-03  -9.822694840E+01   2.992425359E+01
   2.492200000E-02   9.972152091E+01  -9.968829333E-03  -9.820553099E+01   2.994490637E+01
   2.492300000E-02   9.972301591E+01  -9.968978960E-03  -9.818599047E+01   2.996564836E+01
   2.492400000E-02   9.967135438E+01  -8.140255985E+00  -9.817322474E+01   2.998119705E+01
   2.492500000E-02   9.959189404E+01  -2.040602001E+01  -9.817420588E+01   2.998354600E+01
   2.492600000E-02   9.953206033E+01  -2.949567650E+01  -9.818832411E+01   2.997213530E+01
   2.492700000E-02   9.952847681E+01  -2.984961786E+01  -9.820700301E+01   2.995426491E+01
   2.492800000E-02   9.952717516E+01  -2.984922762E+01  -9.822418088E+01   2.993620258E+01
   2.492900000E-02   9.952587085E+01  -2.984883670E+01  -9.823983479E+01   2.991805603E+01
   2.493000000E-02   9.962139835E+01  -1.497449048E+01  -9.825037747E+01   2.990370128E+01
   2.493100000E-02   9.972003067E+01  -9.968680318E-03  -9.822694483E+01   2.992425683E+01
   2.493200000E-02   9.972152010E+01  -9.968829252E-03  -9.820554229E+01   2.994489517E+01
   2.493300000E-02   9.972301510E+01  -9.968978879E-03  -9.818600075E+01   2.996563711E+01
   2.493400000E-02   9.967129759E+01  -8.149116437E+00  -9.817321704E+01   2.998120720E+01
   2.493500000E-02   9.959178626E+01  -2.042258724E+01  -9.817421347E+01   2.998354288E+01
   2.493600000E-02   9.953206816E+01  -2.949457612E+01  -9.818831366E+01   2.997214467E+01
   2.493700000E-02   9.952847751E+01  -2.984961807E+01  -9.820699296E+01   2.995427465E+01
   2.493800000E-02   9.952717587E+01  -2.984922783E+01  -9.822417173E+01   2.993621237E+01
   2.493900000E-02   9.952587156E+01  -2.984883692E+01  -9.823982645E+01   2.991806587E+01
   2.494000000E-02   9.962177476E+01  -1.491659735E+01  -9.825036795E+01   2.990370924E+01
   2.494100000E-02   9.972002987E+01  -9.968680237E-03  -9.822695712E+01   2.992424569E+01
   2.494200000E-02   9.972152124E+01  -9.968829365E-03  -9.820552640E+01   2.994491093E+01
   2.494300000E-02   9.972301708E+01  -9.968979077E-03  -9.818597568E+01   2.996566455E+01
   2.494400000E-02   9.967129635E+01  -8.149309005E+00  -9.817321687E+01   2.998120742E+01
   2.494500000E-02   9.959183047E+01  -2.041579139E+01  -9.817421036E+01   2.998354416E+01
   2.494600000E-02   9.953206656E+01  -2.949480022E+01  -9.818831580E+01   2.997214276E+01
   2.494700000E-02   9.952847821E+01  -2.984961828E+01  -9.820698291E+01   2.995428440E+01
   2.494800000E-02   9.952717658E+01  -2.984922804E+01  -9.822416258E+01   2.993622216E+01
   2.494900000E-02   9.952587026E+01  -2.984883653E+01  -9.823984177E+01   2.991804779E+01
   2.495000000E-02   9.962124735E+01  -1.499771349E+01  -9.825038129E+01   2.990369809E+01
   2.495100000E-02   9.972003079E+01  -9.968680330E-03  -9.822694300E+01   2.992425848E+01
   2.495200000E-02   9.972152126E+01  -9.968829368E-03  -9.820552605E+01   2.994491128E+01
   2.495300000E-02   9.972301627E+01  -9.968978996E-03  -9.818598596E+01   2.996565329E+01
   2.495400000E-02   9.967133671E+01  -8.143012758E+00  -9.817322235E+01   2.998120021E+01
   2.495500000E-02   9.959187468E+01  -2.040899553E+01  -9.817420724E+01   2.998354544E+01
   2.495600000E-02   9.953207436E+01  -2.949370460E+01  -9.818830539E+01   2.997215210E+01
   2.495700000E-02   9.952847692E+01  -2.984961790E+01  -9.820700137E+01   2.995426649E+01
   2.495800000E-02   9.952717485E+01  -2.984922752E+01  -9.822418488E+01   2.993619829E+01
   2.495900000E-02   9.952587054E+01  -2.984883661E+01  -9.823983844E+01   2.991805172E+01
   2.496000000E-02   9.962162713E+01  -1.493930314E+01  -9.825037168E+01   2.990370612E+01
   2.496100000E-02   9.972003102E+01  -9.968680353E-03  -9.822693945E+01   2.992426170E+01
   2.496200000E-02   9.972152045E+01  -9.968829287E-03  -9.820553735E+01   2.994490007E+01
   2.496300000E-02   9.972301546E+01  -9.968978914E-03  -9.818599625E+01   2.996564204E+01
   2.496400000E-02   9.967137706E+01  -8.136716511E+00  -9.817322782E+01   2.998119300E+01
   2.496500000E-02   9.959181246E+01  -2.041855898E+01  -9.817421162E+01   2.998354364E+01
   2.496600000E-02   9.953206473E+01  -2.949505792E+01  -9.818831824E+01   2.997214057E+01
   2.496700000E-02   9.952847720E+01  -2.984961798E+01  -9.820699736E+01   2.995427039E+01
   2.496800000E-02   9.952717556E+01  -2.984922774E+01  -9.822417573E+01   2.993620808E+01
   2.496900000E-02   9.952587125E+01  -2.984883682E+01  -9.823983010E+01   2.991806156E+01
   2.497000000E-02   9.962200569E+01  -1.488108115E+01  -9.825036211E+01   2.990371412E+01
   2.497100000E-02   9.972003022E+01  -9.968680272E-03  -9.822695174E+01   2.992425057E+01
   2.497200000E-02   9.972151964E+01  -9.968829207E-03  -9.820554864E+01   2.994488887E+01
   2.497300000E-02   9.972301660E+01  -9.968979029E-03  -9.818598178E+01   2.996565787E+01
   2.497400000E-02   9.967127868E+01  -8.152065778E+00  -9.817321448E+01   2.998121058E+01
   2.497500000E-02   9.959181111E+01  -2.041876691E+01  -9.817421172E+01   2.998354360E+01
   2.497600000E-02   9.953207256E+01  -2.949395754E+01  -9.818830779E+01   2.997214994E+01
   2.497700000E-02   9.952847790E+01  -2.984961819E+01  -9.820698731E+01   2.995428013E+01
   2.497800000E-02   9.952717627E+01  -2.984922795E+01  -9.822416658E+01   2.993621788E+01
   2.497900000E-02   9.952587195E+01  -2.984883703E+01  -9.823982176E+01   2.991807140E+01
   2.498000000E-02   9.962147828E+01  -1.496219729E+01  -9.825037545E+01   2.990370297E+01
   2.498100000E-02   9.972003114E+01  -9.968680365E-03  -9.822693761E+01   2.992426337E+01
   2.498200000E-02   9.972152162E+01  -9.968829403E-03  -9.820552110E+01   2.994491618E+01
   2.498300000E-02   9.972301662E+01  -9.968979031E-03  -9.818598146E+01   2.996565822E+01
   2.498400000E-02   9.967131904E+01  -8.145769531E+00  -9.817321995E+01   2.998120337E+01
   2.498500000E-02   9.959185532E+01  -2.041197105E+01  -9.817420861E+01   2.998354488E+01
   2.498600000E-02   9.953207094E+01  -2.949418460E+01  -9.818830994E+01   2.997214801E+01
   2.498700000E-02   9.952847860E+01  -2.984961840E+01  -9.820697726E+01   2.995428988E+01
   2.498800000E-02   9.952717497E+01  -2.984922756E+01  -9.822418339E+01   2.993619988E+01
   2.498900000E-02   9.952587023E+01  -2.984883652E+01  -9.823984209E+01   2.991804741E+01
   2.499000000E-02   9.962185592E+01  -1.490411579E+01  -9.825036590E+01   2.990371096E+01
   2.499100000E-02   9.972003033E+01  -9.968680284E-03  -9.822694993E+01   2.992425221E+01
   2.499200000E-02   9.972152081E+01  -9.968829323E-03  -9.820553240E+01   2.994490498E+01
   2.499300000E-02   9.972301581E+01  -9.968978950E-03  -9.818599174E+01   2.996564697E+01
   2.499400000E-02   9.967135939E+01  -8.139473284E+00  -9.817322542E+01   2.998119616E+01
   2.499500000E-02   9.959189953E+01  -2.040517520E+01  -9.817420549E+01   2.998354616E+01
   2.499600000E-02   9.953206131E+01  -2.949553971E+01  -9.818832281E+01   2.997213647E+01
   2.499700000E-02   9.952847690E+01  -2.984961789E+01  -9.820700176E+01   2.995426612E+01
   2.499800000E-02   9.952717525E+01  -2.984922764E+01  -9.822417974E+01   2.993620379E+01
   2.499900000E-02   9.952587094E+01  -2.984883673E+01  -9.823983375E+01   2.991805725E+01
   2.500000000E-02   9.971714256E+01  -1.964557677E-01  -9.825303864E+01   2.990099293E+01
   2.500000037E-02   9.971835327E+01  -9.968512692E-03  -9.825303650E+01   2.990099335E+01




          JOB CONCLUDED

          TOTAL JOB TIME            5.72
