
**** 05/31/13 09:43:54 ********* PSpice 9.2 (Mar 2000) ******** ID# 1 ********

 ** Profile: "SCHEMATIC1-2"  [ G:\44FZ\paralel-schematic1-2.sim ] 


 ****     CIRCUIT DESCRIPTION


******************************************************************************




** Creating circuit file "paralel-schematic1-2.sim.cir" 
** WARNING: THIS AUTOMATICALLY GENERATED FILE MAY BE OVERWRITTEN BY SUBSEQUENT SIMULATIONS

*Libraries: 
* Local Libraries :
* From [PSPICE NETLIST] section of g:\program files\Orcad\PSpice\PSpice.ini file:
.lib "nom.lib" 

*Analysis directives: 
.TRAN 1u 25ms 13ms 1u 
.OPTIONS NOBIAS
.OPTIONS NOMOD
.OPTIONS NOOUTMSG
.OPTIONS ITL4= 100
.OPTIONS NUMDGT= 10
.OPTIONS WIDTH= 132
.PROBE V(*) I(*) W(*) D(*) NOISE(*) 
.INC ".\paralel-SCHEMATIC1.net" 



**** INCLUDING paralel-SCHEMATIC1.net ****
* source PARALEL
R_R2         0 N50597  1MEG  
X_S4    N241303 0 N27236 N241265 SCHEMATIC1_S4 
X_S2    N236610 0 N27236 N235437 SCHEMATIC1_S2 
R_RB1         0 SHIM  3.33333  
R_R6         0 N260882  1MEG  
E_DIFF3         N241303 0 VALUE {V(N257386,N254383)}
R_RB2         0 N235437  4  
R_R8         0 N260240  1MEG  
X_U2         N260882 N254383 Sw_tClose PARAMS: tClose=24.5m ttran=1u
+  Rclosed=0.01 Ropen=1Meg
E_E1         N62053 0 VALUE {
+  if(I(V_V1)<138.9473,(-25.641*log((139.2857-I(V_V1))/139.2857))/-1.204+128.2051,0)
+  }
R_RB3         0 N239113  4  
C_CN         N40356 RN1  0.001  
L_L2         N64666 RN1  5uH  
C_CF         N00729 N27236  0.009  
V_V4         N259871 0   0.7
R_R4         0 N254383  1MEG  
R_RK2         N234987 N64666  0.02630  
R_RCN         0 N40356  0.02171  
V_V3         N50597 0 DC 0.01 AC 1
+PULSE 0 0.8 0 0.0098m 0.0001m 0.01m 0.01m
R_RCF         N00729 0  6.51419e-3  
X_S3    N239167 0 N27236 N239113 SCHEMATIC1_S3 
V_V5         N260240 0   0.7
X_U3         N260009 N260882 Sw_tClose PARAMS: tClose=24.5m ttran=1u
+  Rclosed=0.01 Ropen=1Meg
R_R7         0 N260009  1MEG  
L_L1         N134688 N27236  5uH  
V_V6         N257386 0   0.7
X_S1    N27337 0 N27236 SHIM SCHEMATIC1_S1 
R_RDN         0 N27236  40  
E_DIFF1         N50582 0 VALUE {V(N08877,N27236)}
E_DIFF4         N239167 0 VALUE {V(N260240,N260882)}
V_V2         N254251 0   1
V_V1         N62053 N134650 DC 0 AC 1 0
R_RB4         0 N241265  4  
V_Unom         N08877 0   100
R_R3         0 N254251  1MEG  
E_DIFF5         N236610 0 VALUE {V(N259871,N260009)}
R_RA         0 RN1  3.3333333  
R_RK1         N134688 N134650  0.02630  
E_DIFF2         N27337 0 VALUE {V(N50597,N50582)}
R_R5         0 N257386  1MEG  
X_SwStart         N27236 N234987 Sw_tClose PARAMS: tClose=14m ttran=1u
+  Rclosed=1u Ropen=1MEG
X_U1         N254383 N254251 Sw_tClose PARAMS: tClose=14.4m ttran=1u
+  Rclosed=0.01 Ropen=1Meg
R_R1         0 N08877  1MEG  
R_R9         0 N259871  1MEG  
.IC         V(N134650 )=5
.PRINT         TRAN V([N27236]) I(R_RB1) I(R_RK1) I(R_RK2)


.subckt SCHEMATIC1_S4 1 2 3 4  
S_S4         3 4 1 2 _S4
RS_S4         1 2 1G
.MODEL         _S4 VSWITCH Roff=1e4 Ron=1m Voff=-1e-4 Von=1e-4
.ends SCHEMATIC1_S4

.subckt SCHEMATIC1_S2 1 2 3 4  
S_S2         3 4 1 2 _S2
RS_S2         1 2 1G
.MODEL         _S2 VSWITCH Roff=1e4 Ron=0.1m Voff=-1e-4 Von=1e-4
.ends SCHEMATIC1_S2

.subckt SCHEMATIC1_S3 1 2 3 4  
S_S3         3 4 1 2 _S3
RS_S3         1 2 1G
.MODEL         _S3 VSWITCH Roff=1e4 Ron=1m Voff=-1e-4 Von=1e-4
.ends SCHEMATIC1_S3

.subckt SCHEMATIC1_S1 1 2 3 4  
S_S1         3 4 1 2 _S1
RS_S1         1 2 1G
.MODEL         _S1 VSWITCH Roff=1e4 Ron=1m Voff=-1e-4 Von=1e-4
.ends SCHEMATIC1_S1

**** RESUMING paralel-schematic1-2.sim.cir ****
.END

WARNING -- Pulse Period < (Rise Time + Fall Time + Pulse Width) for V_V3
WARNING -- Pulse Period < (Rise Time + Fall Time + Pulse Width) for V_V3
**** 05/31/13 09:43:54 ********* PSpice 9.2 (Mar 2000) ******** ID# 1 ********

 ** Profile: "SCHEMATIC1-2"  [ G:\44FZ\paralel-schematic1-2.sim ] 


 ****     TRANSIENT ANALYSIS               TEMPERATURE =   27.000 DEG C


******************************************************************************



  TIME              V(N27236)         I(R_RB1)          I(R_RK1)          I(R_RK2)          

   1.300000000E-02   9.984606869E+01  -9.981280130E-03  -9.806647543E+01   9.984573879E-05
   1.300100000E-02   9.984817359E+01  -9.981489939E-03  -9.803760821E+01   9.984786957E-05
   1.300200000E-02   9.983615145E+01  -2.173023181E+00  -9.801264043E+01   9.983585671E-05
   1.300300000E-02   9.975512896E+01  -1.486759675E+01  -9.799906096E+01   9.975483154E-05
   1.300400000E-02   9.967346154E+01  -2.746403132E+01  -9.800230833E+01   9.967316134E-05
   1.300500000E-02   9.965686699E+01  -2.988812291E+01  -9.801553996E+01   9.965656623E-05
   1.300600000E-02   9.965594395E+01  -2.988784784E+01  -9.802807138E+01   9.965564230E-05
   1.300700000E-02   9.965501936E+01  -2.988756898E+01  -9.803949567E+01   9.965471687E-05
   1.300800000E-02   9.965408791E+01  -2.988728867E+01  -9.804991549E+01   9.965378492E-05
   1.300900000E-02   9.965314942E+01  -2.988700828E+01  -9.805944311E+01   9.965284672E-05
   1.301000000E-02   9.974900249E+01  -1.499975064E+01  -9.806438707E+01   9.974869776E-05
   1.301100000E-02   9.984825992E+01  -9.981498587E-03  -9.803591164E+01   9.984795724E-05
   1.301200000E-02   9.982323176E+01  -4.164523957E+00  -9.801240382E+01   9.982293176E-05
   1.301300000E-02   9.975512562E+01  -1.485035088E+01  -9.800007820E+01   9.975482201E-05
   1.301400000E-02   9.967348691E+01  -2.745746328E+01  -9.800212104E+01   9.967318986E-05
   1.301500000E-02   9.965716010E+01  -2.984530978E+01  -9.801497253E+01   9.965685798E-05
   1.301600000E-02   9.965596811E+01  -2.988785255E+01  -9.802753652E+01   9.965566954E-05
   1.301700000E-02   9.965503951E+01  -2.988757427E+01  -9.803901279E+01   9.965473556E-05
   1.301800000E-02   9.965410880E+01  -2.988729581E+01  -9.804947619E+01   9.965380903E-05
   1.301900000E-02   9.965317194E+01  -2.988701426E+01  -9.805904213E+01   9.965286721E-05
   1.302000000E-02   9.974939908E+01  -1.494163415E+01  -9.806403598E+01   9.974909709E-05
   1.302100000E-02   9.984827886E+01  -9.981501114E-03  -9.803558713E+01   9.984797988E-05
   1.302200000E-02   9.982322205E+01  -4.169133268E+00  -9.801211155E+01   9.982292402E-05
   1.302300000E-02   9.975509384E+01  -1.485856526E+01  -9.799981633E+01   9.975479022E-05
   1.302400000E-02   9.967353109E+01  -2.745390824E+01  -9.800188895E+01   9.967323404E-05
   1.302500000E-02   9.965717842E+01  -2.984593170E+01  -9.801477321E+01   9.965687542E-05
   1.302600000E-02   9.965598435E+01  -2.988786007E+01  -9.802734927E+01   9.965569102E-05
   1.302700000E-02   9.965506142E+01  -2.988758200E+01  -9.803883666E+01   9.965475774E-05
   1.302800000E-02   9.965412590E+01  -2.988730202E+01  -9.804931535E+01   9.965383136E-05
   1.302900000E-02   9.965318699E+01  -2.988702149E+01  -9.805889797E+01   9.965288882E-05
   1.303000000E-02   9.974934421E+01  -1.495302014E+01  -9.806390092E+01   9.974904498E-05
   1.303100000E-02   9.984829775E+01  -9.981502863E-03  -9.803547715E+01   9.984800058E-05
   1.303200000E-02   9.982324880E+01  -4.168190844E+00  -9.801200658E+01   9.982295045E-05
   1.303300000E-02   9.975508485E+01  -1.486318864E+01  -9.799971166E+01   9.975478123E-05
   1.303400000E-02   9.967349933E+01  -2.746193679E+01  -9.800179868E+01   9.967320228E-05
   1.303500000E-02   9.965719823E+01  -2.984639700E+01  -9.801467656E+01   9.965689436E-05
   1.303600000E-02   9.965600774E+01  -2.988786594E+01  -9.802726359E+01   9.965571334E-05
   1.303700000E-02   9.965507780E+01  -2.988758766E+01  -9.803876293E+01   9.965477935E-05
   1.303800000E-02   9.965414709E+01  -2.988730764E+01  -9.804924307E+01   9.965385283E-05
   1.303900000E-02   9.965321023E+01  -2.988702732E+01  -9.805882440E+01   9.965290501E-05
   1.304000000E-02   9.974929344E+01  -1.496436386E+01  -9.806383832E+01   9.974898951E-05
   1.304100000E-02   9.984832146E+01  -9.981504807E-03  -9.803540060E+01   9.984802049E-05
   1.304200000E-02   9.982324137E+01  -4.172700051E+00  -9.801194014E+01   9.982294270E-05
   1.304300000E-02   9.975510626E+01  -1.486294951E+01  -9.799966042E+01   9.975480265E-05
   1.304400000E-02   9.967349416E+01  -2.746577146E+01  -9.800174859E+01   9.967319710E-05
   1.304500000E-02   9.965720987E+01  -2.984702392E+01  -9.801464098E+01   9.965691142E-05
   1.304600000E-02   9.965602893E+01  -2.988787156E+01  -9.802722398E+01   9.965572881E-05
   1.304700000E-02   9.965510104E+01  -2.988759349E+01  -9.803871287E+01   9.965479426E-05
   1.304800000E-02   9.965416976E+01  -2.988731329E+01  -9.804920593E+01   9.965386717E-05
   1.304900000E-02   9.965323276E+01  -2.988703294E+01  -9.805878993E+01   9.965292519E-05
   1.305000000E-02   9.974969003E+01  -1.490624732E+01  -9.806378480E+01   9.974938521E-05
   1.305100000E-02   9.984833844E+01  -9.981506556E-03  -9.803537453E+01   9.984803664E-05
   1.305200000E-02   9.982326585E+01  -4.171573885E+00  -9.801191375E+01   9.982296697E-05
   1.305300000E-02   9.975509728E+01  -1.486731240E+01  -9.799962671E+01   9.975479367E-05
   1.305400000E-02   9.967351175E+01  -2.746597940E+01  -9.800171588E+01   9.967321469E-05
   1.305500000E-02   9.965723006E+01  -2.984740860E+01  -9.801460316E+01   9.965692473E-05
   1.305600000E-02   9.965604532E+01  -2.988787722E+01  -9.802719627E+01   9.965574916E-05
   1.305700000E-02   9.965511594E+01  -2.988759910E+01  -9.803868676E+01   9.965481572E-05
   1.305800000E-02   9.965418538E+01  -2.988731912E+01  -9.804917150E+01   9.965388935E-05
   1.305900000E-02   9.965324852E+01  -2.988703881E+01  -9.805875430E+01   9.965294753E-05
   1.306000000E-02   9.974918399E+01  -1.498709264E+01  -9.806377037E+01   9.974888194E-05
   1.306100000E-02   9.984835928E+01  -9.981508501E-03  -9.803533327E+01   9.984805928E-05
   1.306200000E-02   9.982325841E+01  -4.175886424E+00  -9.801187478E+01   9.982295921E-05
   1.306300000E-02   9.975511869E+01  -1.486679373E+01  -9.799959835E+01   9.975481508E-05
   1.306400000E-02   9.967347999E+01  -2.747360920E+01  -9.800169428E+01   9.967318294E-05
   1.306500000E-02   9.965724171E+01  -2.984798491E+01  -9.801458552E+01   9.965694180E-05
   1.306600000E-02   9.965606092E+01  -2.988788305E+01  -9.802716868E+01   9.965576533E-05
   1.306700000E-02   9.965513799E+01  -2.988760497E+01  -9.803865775E+01   9.965483078E-05
   1.306800000E-02   9.965420176E+01  -2.988732478E+01  -9.804915095E+01   9.965390369E-05
   1.306900000E-02   9.965326342E+01  -2.988704442E+01  -9.805872879E+01   9.965296171E-05
   1.307000000E-02   9.974957676E+01  -1.492897513E+01  -9.806372829E+01   9.974927400E-05
   1.307100000E-02   9.984837340E+01  -9.981510249E-03  -9.803532056E+01   9.984807270E-05
   1.307200000E-02   9.982325894E+01  -4.178440124E+00  -9.801184187E+01   9.982295953E-05
   1.307300000E-02   9.975508691E+01  -1.487443134E+01  -9.799956997E+01   9.975478329E-05
   1.307400000E-02   9.967352417E+01  -2.746946758E+01  -9.800166588E+01   9.967322711E-05
   1.307500000E-02   9.965699142E+01  -2.988816073E+01  -9.801472157E+01   9.965668969E-05
   1.307600000E-02   9.965606898E+01  -2.988788432E+01  -9.802727514E+01   9.965576631E-05
   1.307700000E-02   9.965513949E+01  -2.988760618E+01  -9.803875586E+01   9.965484235E-05
   1.307800000E-02   9.965420893E+01  -2.988732617E+01  -9.804922639E+01   9.965390629E-05
   1.307900000E-02   9.965327196E+01  -2.988704586E+01  -9.805880173E+01   9.965297403E-05
   1.308000000E-02   9.974951084E+01  -1.494030000E+01  -9.806379157E+01   9.974920772E-05
   1.308100000E-02   9.984838185E+01  -9.981511262E-03  -9.803536322E+01   9.984808079E-05
   1.308200000E-02   9.982327088E+01  -4.177436695E+00  -9.801189563E+01   9.982297136E-05
   1.308300000E-02   9.975513112E+01  -1.486832444E+01  -9.799961486E+01   9.975482751E-05
   1.308400000E-02   9.967349241E+01  -2.747509986E+01  -9.800170799E+01   9.967319535E-05
   1.308500000E-02   9.965699349E+01  -2.988816253E+01  -9.801476246E+01   9.965669661E-05
   1.308600000E-02   9.965607575E+01  -2.988788634E+01  -9.802730200E+01   9.965577395E-05
   1.308700000E-02   9.965514763E+01  -2.988760824E+01  -9.803877384E+01   9.965484401E-05
   1.308800000E-02   9.965421634E+01  -2.988732801E+01  -9.804925177E+01   9.965391218E-05
   1.308900000E-02   9.965327922E+01  -2.988704605E+01  -9.805882188E+01   9.965297483E-05
   1.309000000E-02   9.974944061E+01  -1.495170009E+01  -9.806380910E+01   9.974913732E-05
   1.309100000E-02   9.984838553E+01  -9.981511344E-03  -9.803536774E+01   9.984808615E-05
   1.309200000E-02   9.982325655E+01  -4.180271398E+00  -9.801190244E+01   9.982295922E-05
   1.309300000E-02   9.975509933E+01  -1.487400752E+01  -9.799962691E+01   9.975479572E-05
   1.309400000E-02   9.967348722E+01  -2.747660646E+01  -9.800171893E+01   9.967319017E-05
   1.309500000E-02   9.965699680E+01  -2.988816349E+01  -9.801475951E+01   9.965669617E-05
   1.309600000E-02   9.965607462E+01  -2.988788715E+01  -9.802729716E+01   9.965577893E-05
   1.309700000E-02   9.965515152E+01  -2.988760906E+01  -9.803877256E+01   9.965485044E-05
   1.309800000E-02   9.965421624E+01  -2.988732911E+01  -9.804924176E+01   9.965391934E-05
   1.309900000E-02   9.965328422E+01  -2.988704879E+01  -9.805880750E+01   9.965298235E-05
   1.310000000E-02   9.974937018E+01  -1.496313115E+01  -9.806381137E+01   9.974906671E-05
   1.310100000E-02   9.984838916E+01  -9.981512162E-03  -9.803538268E+01   9.984808775E-05
   1.310200000E-02   9.982327877E+01  -4.177525401E+00  -9.801191420E+01   9.982297915E-05
   1.310300000E-02   9.975509035E+01  -1.487608753E+01  -9.799962601E+01   9.975478673E-05
   1.310400000E-02   9.967350482E+01  -2.747457276E+01  -9.800171407E+01   9.967320777E-05
   1.310500000E-02   9.965700066E+01  -2.988816427E+01  -9.801476828E+01   9.965669968E-05
   1.310600000E-02   9.965607915E+01  -2.988788813E+01  -9.802729912E+01   9.965578313E-05
   1.310700000E-02   9.965515622E+01  -2.988761008E+01  -9.803877028E+01   9.965485475E-05
   1.310800000E-02   9.965422088E+01  -2.988733012E+01  -9.804923634E+01   9.965392365E-05
   1.310900000E-02   9.965328198E+01  -2.988704960E+01  -9.805881259E+01   9.965298593E-05
   1.311000000E-02   9.974930446E+01  -1.497442410E+01  -9.806381362E+01   9.974900064E-05
   1.311100000E-02   9.984839761E+01  -9.981512244E-03  -9.803536431E+01   9.984809584E-05
   1.311200000E-02   9.982326673E+01  -4.180305138E+00  -9.801189812E+01   9.982296700E-05
   1.311300000E-02   9.975511176E+01  -1.487339683E+01  -9.799962054E+01   9.975480815E-05
   1.311400000E-02   9.967347306E+01  -2.748007521E+01  -9.800171306E+01   9.967317601E-05
   1.311500000E-02   9.965700879E+01  -2.988816633E+01  -9.801475347E+01   9.965670745E-05
   1.311600000E-02   9.965608658E+01  -2.988788997E+01  -9.802729415E+01   9.965578429E-05
   1.311700000E-02   9.965515728E+01  -2.988761188E+01  -9.803876704E+01   9.965486030E-05
   1.311800000E-02   9.965422672E+01  -2.988733192E+01  -9.804923272E+01   9.965392465E-05
   1.311900000E-02   9.965328995E+01  -2.988705006E+01  -9.805880150E+01   9.965298627E-05
   1.312000000E-02   9.974968197E+01  -1.491630562E+01  -9.806379443E+01   9.974938178E-05
   1.312100000E-02   9.984839647E+01  -9.981513061E-03  -9.803537163E+01   9.984809470E-05
   1.312200000E-02   9.982326267E+01  -4.181401622E+00  -9.801188809E+01   9.982296295E-05
   1.312300000E-02   9.975507998E+01  -1.487897547E+01  -9.799960970E+01   9.975477636E-05
   1.312400000E-02   9.967351724E+01  -2.747391587E+01  -9.800170489E+01   9.967322019E-05
   1.312500000E-02   9.965701184E+01  -2.988816724E+01  -9.801475030E+01   9.965671051E-05
   1.312600000E-02   9.965609036E+01  -2.988789111E+01  -9.802728169E+01   9.965578807E-05
   1.312700000E-02   9.965516055E+01  -2.988761285E+01  -9.803875943E+01   9.965486355E-05
   1.312800000E-02   9.965422982E+01  -2.988733285E+01  -9.804922894E+01   9.965392778E-05
   1.312900000E-02   9.965329308E+01  -2.988705254E+01  -9.805879447E+01   9.965299529E-05
   1.313000000E-02   9.974916449E+01  -1.499714907E+01  -9.806380288E+01   9.974886032E-05
   1.313100000E-02   9.984840492E+01  -9.981513143E-03  -9.803535611E+01   9.984810279E-05
   1.313200000E-02   9.982327462E+01  -4.180257710E+00  -9.801188616E+01   9.982297479E-05
   1.313300000E-02   9.975512419E+01  -1.487267410E+01  -9.799961187E+01   9.975482058E-05
   1.313400000E-02   9.967348548E+01  -2.747936367E+01  -9.800170389E+01   9.967318843E-05
   1.313500000E-02   9.965701656E+01  -2.988816828E+01  -9.801474382E+01   9.965671487E-05
   1.313600000E-02   9.965609435E+01  -2.988789192E+01  -9.802728464E+01   9.965579170E-05
   1.313700000E-02   9.965516505E+01  -2.988761383E+01  -9.803875769E+01   9.965486772E-05
   1.313800000E-02   9.965423449E+01  -2.988733387E+01  -9.804922352E+01   9.965393207E-05
   1.313900000E-02   9.965329773E+01  -2.988705356E+01  -9.805878624E+01   9.965299369E-05
   1.314000000E-02   9.974954200E+01  -1.493902963E+01  -9.806378750E+01   9.974924146E-05
   1.314100000E-02   9.984840451E+01  -9.981513452E-03  -9.803535856E+01   9.984810239E-05
   1.314200000E-02   9.982327057E+01  -4.181317008E+00  -9.801188377E+01   9.982297074E-05
   1.314300000E-02   9.975509240E+01  -1.487820109E+01  -9.799960333E+01   9.975478879E-05
   1.314400000E-02   9.967352966E+01  -2.747315218E+01  -9.800169572E+01   9.967323260E-05
   1.314500000E-02   9.965701620E+01  -2.988816888E+01  -9.801474136E+01   9.965671723E-05
   1.314600000E-02   9.965609469E+01  -2.988789203E+01  -9.802727246E+01   9.965579796E-05
   1.314700000E-02   9.965517106E+01  -2.988761377E+01  -9.803875249E+01   9.965486888E-05
   1.314800000E-02   9.965423555E+01  -2.988733531E+01  -9.804921990E+01   9.965393762E-05
   1.314900000E-02   9.965330356E+01  -2.988705380E+01  -9.805878847E+01   9.965300060E-05
   1.315000000E-02   9.974947577E+01  -1.495040146E+01  -9.806378595E+01   9.974917124E-05
   1.315100000E-02   9.984841222E+01  -9.981514042E-03  -9.803534982E+01   9.984810975E-05
   1.315200000E-02   9.982328252E+01  -4.180140512E+00  -9.801188184E+01   9.982298258E-05
   1.315300000E-02   9.975508341E+01  -1.488014977E+01  -9.799959479E+01   9.975477979E-05
   1.315400000E-02   9.967349790E+01  -2.747855353E+01  -9.800169204E+01   9.967320085E-05
   1.315500000E-02   9.965702347E+01  -2.988816997E+01  -9.801474174E+01   9.965672143E-05
   1.315600000E-02   9.965610196E+01  -2.988789383E+01  -9.802726965E+01   9.965579896E-05
   1.315700000E-02   9.965517282E+01  -2.988761578E+01  -9.803874072E+01   9.965487514E-05
   1.315800000E-02   9.965424226E+01  -2.988733582E+01  -9.804920670E+01   9.965393948E-05
   1.315900000E-02   9.965330479E+01  -2.988705529E+01  -9.805878287E+01   9.965300040E-05
   1.316000000E-02   9.974940204E+01  -1.496175364E+01  -9.806378058E+01   9.974910114E-05
   1.316100000E-02   9.984841305E+01  -9.981514124E-03  -9.803533145E+01   9.984811057E-05
   1.316200000E-02   9.982326818E+01  -4.182832014E+00  -9.801186576E+01   9.982296824E-05
   1.316300000E-02   9.975510483E+01  -1.487733296E+01  -9.799959466E+01   9.975480122E-05
   1.316400000E-02   9.967349272E+01  -2.747986009E+01  -9.800169269E+01   9.967319567E-05
   1.316500000E-02   9.965702397E+01  -2.988817202E+01  -9.801473171E+01   9.965672192E-05
   1.316600000E-02   9.965610246E+01  -2.988789433E+01  -9.802726295E+01   9.965580537E-05
   1.316700000E-02   9.965517883E+01  -2.988761727E+01  -9.803874315E+01   9.965487630E-05
   1.316800000E-02   9.965424332E+01  -2.988733762E+01  -9.804921070E+01   9.965394504E-05
   1.316900000E-02   9.965330513E+01  -2.988705575E+01  -9.805877321E+01   9.965300802E-05
   1.317000000E-02   9.974978337E+01  -1.490363515E+01  -9.806376139E+01   9.974948228E-05
   1.317100000E-02   9.984841953E+01  -9.981514360E-03  -9.803534163E+01   9.984811671E-05
   1.317200000E-02   9.982329042E+01  -4.179958257E+00  -9.801187522E+01   9.982299037E-05
   1.317300000E-02   9.975509585E+01  -1.487923421E+01  -9.799958842E+01   9.975479223E-05
   1.317400000E-02   9.967351032E+01  -2.747765565E+01  -9.800168287E+01   9.967321326E-05
   1.317500000E-02   9.965703124E+01  -2.988817192E+01  -9.801472924E+01   9.965672884E-05
   1.317600000E-02   9.965610973E+01  -2.988789577E+01  -9.802726014E+01   9.965580638E-05
   1.317700000E-02   9.965518059E+01  -2.988761773E+01  -9.803873137E+01   9.965487664E-05
   1.317800000E-02   9.965424933E+01  -2.988733756E+01  -9.804920529E+01   9.965394483E-05
   1.317900000E-02   9.965331240E+01  -2.988705720E+01  -9.805877545E+01   9.965300766E-05
   1.318000000E-02   9.974926207E+01  -1.498447766E+01  -9.806377747E+01   9.974895719E-05
   1.318100000E-02   9.984842035E+01  -9.981515023E-03  -9.803532802E+01   9.984811752E-05
   1.318200000E-02   9.982327608E+01  -4.182619377E+00  -9.801186143E+01   9.982297603E-05
   1.318300000E-02   9.975511726E+01  -1.487637668E+01  -9.799958829E+01   9.975481364E-05
   1.318400000E-02   9.967347856E+01  -2.748299337E+01  -9.800168186E+01   9.967318150E-05
   1.318500000E-02   9.965703174E+01  -2.988817278E+01  -9.801472206E+01   9.965672934E-05
   1.318600000E-02   9.965610953E+01  -2.988789572E+01  -9.802726280E+01   9.965580618E-05
   1.318700000E-02   9.965518023E+01  -2.988761762E+01  -9.803873576E+01   9.965488219E-05
   1.318800000E-02   9.965424967E+01  -2.988733921E+01  -9.804920151E+01   9.965395245E-05
   1.318900000E-02   9.965331291E+01  -2.988705770E+01  -9.805876415E+01   9.965301544E-05
   1.319000000E-02   9.974964340E+01  -1.492635916E+01  -9.806375828E+01   9.974933833E-05
   1.319100000E-02   9.984842208E+01  -9.981514909E-03  -9.803533534E+01   9.984812093E-05
   1.319200000E-02   9.982327202E+01  -4.183601711E+00  -9.801185141E+01   9.982297416E-05
   1.319300000E-02   9.975508547E+01  -1.488179288E+01  -9.799957745E+01   9.975478186E-05
   1.319400000E-02   9.967352273E+01  -2.747667444E+01  -9.800167369E+01   9.967322568E-05
   1.319500000E-02   9.965703423E+01  -2.988817387E+01  -9.801471960E+01   9.965673626E-05
   1.319600000E-02   9.965610987E+01  -2.988789772E+01  -9.802725062E+01   9.965581379E-05
   1.319700000E-02   9.965518694E+01  -2.988761968E+01  -9.803872203E+01   9.965488406E-05
   1.319800000E-02   9.965425089E+01  -2.988733951E+01  -9.804919610E+01   9.965395225E-05
   1.319900000E-02   9.965331874E+01  -2.988705915E+01  -9.805876638E+01   9.965301507E-05
   1.320000000E-02   9.974957373E+01  -1.493767083E+01  -9.806375671E+01   9.974926850E-05
   1.320100000E-02   9.984842766E+01  -9.981515341E-03  -9.803531982E+01   9.984812448E-05
   1.320200000E-02   9.982328397E+01  -4.182349713E+00  -9.801185482E+01   9.982298382E-05
   1.320300000E-02   9.975512968E+01  -1.487534000E+01  -9.799957657E+01   9.975482607E-05
   1.320400000E-02   9.967349097E+01  -2.748197276E+01  -9.800167269E+01   9.967318919E-05
   1.320500000E-02   9.965703897E+01  -2.988817457E+01  -9.801472015E+01   9.965673622E-05
   1.320600000E-02   9.965611714E+01  -2.988789762E+01  -9.802724923E+01   9.965581343E-05
   1.320700000E-02   9.965518800E+01  -2.988761957E+01  -9.803871879E+01   9.965488961E-05
   1.320800000E-02   9.965425744E+01  -2.988734116E+01  -9.804918468E+01   9.965395396E-05
   1.320900000E-02   9.965332068E+01  -2.988705965E+01  -9.805875366E+01   9.965301558E-05
   1.321000000E-02   9.974949961E+01  -1.494908318E+01  -9.806375517E+01   9.974919801E-05
   1.321100000E-02   9.984842848E+01  -9.981516005E-03  -9.803530622E+01   9.984812530E-05
   1.321200000E-02   9.982326963E+01  -4.184970760E+00  -9.801184102E+01   9.982296948E-05
   1.321300000E-02   9.975509790E+01  -1.488071939E+01  -9.799957107E+01   9.975479428E-05
   1.321400000E-02   9.967353515E+01  -2.747561761E+01  -9.800166451E+01   9.967323337E-05
   1.321500000E-02   9.965704256E+01  -2.988817493E+01  -9.801470925E+01   9.965673981E-05
   1.321600000E-02   9.965612038E+01  -2.988789859E+01  -9.802724397E+01   9.965581668E-05
   1.321700000E-02   9.965519111E+01  -2.988762050E+01  -9.803871935E+01   9.965488680E-05
   1.321800000E-02   9.965426054E+01  -2.988734209E+01  -9.804918236E+01   9.965395570E-05
   1.321900000E-02   9.965332381E+01  -2.988706060E+01  -9.805874663E+01   9.965301871E-05
   1.322000000E-02   9.974942926E+01  -1.496050103E+01  -9.806374981E+01   9.974912749E-05
   1.322100000E-02   9.984843020E+01  -9.981515891E-03  -9.803531640E+01   9.984813144E-05
   1.322200000E-02   9.982328958E+01  -4.182026060E+00  -9.801185049E+01   9.982299161E-05
   1.322300000E-02   9.975508891E+01  -1.488252365E+01  -9.799956483E+01   9.975478530E-05
   1.322400000E-02   9.967350339E+01  -2.748087901E+01  -9.800166847E+01   9.967320161E-05
   1.322500000E-02   9.965704220E+01  -2.988817673E+01  -9.801471150E+01   9.965673946E-05
   1.322600000E-02   9.965612072E+01  -2.988790060E+01  -9.802723947E+01   9.965581702E-05
   1.322700000E-02   9.965519091E+01  -2.988762234E+01  -9.803871557E+01   9.965489249E-05
   1.322800000E-02   9.965426018E+01  -2.988734234E+01  -9.804918491E+01   9.965396261E-05
   1.322900000E-02   9.965332344E+01  -2.988706203E+01  -9.805875029E+01   9.965302562E-05
   1.323000000E-02   9.974935965E+01  -1.497180625E+01  -9.806375206E+01   9.974905406E-05
   1.323100000E-02   9.984843579E+01  -9.981516322E-03  -9.803530279E+01   9.984813225E-05
   1.323200000E-02   9.982327753E+01  -4.184621666E+00  -9.801183670E+01   9.982297727E-05
   1.323300000E-02   9.975511033E+01  -1.487957122E+01  -9.799956470E+01   9.975480671E-05
   1.323400000E-02   9.967347163E+01  -2.748612447E+01  -9.800166480E+01   9.967316985E-05
   1.323500000E-02   9.965704474E+01  -2.988817663E+01  -9.801471193E+01   9.965674637E-05
   1.323600000E-02   9.965612036E+01  -2.988790049E+01  -9.802723665E+01   9.965582393E-05
   1.323700000E-02   9.965519742E+01  -2.988762245E+01  -9.803871001E+01   9.965489422E-05
   1.323800000E-02   9.965426214E+01  -2.988734250E+01  -9.804917316E+01   9.965396312E-05
   1.323900000E-02   9.965332942E+01  -2.988706197E+01  -9.805874466E+01   9.965302542E-05
   1.324000000E-02   9.974973715E+01  -1.491368774E+01  -9.806373287E+01   9.974943521E-05
   1.324100000E-02   9.984843465E+01  -9.981516790E-03  -9.803531297E+01   9.984813112E-05
   1.324200000E-02   9.982327347E+01  -4.185541316E+00  -9.801183202E+01   9.982297321E-05
   1.324300000E-02   9.975507854E+01  -1.488489748E+01  -9.799956149E+01   9.975477493E-05
   1.324400000E-02   9.967351581E+01  -2.747971851E+01  -9.800165929E+01   9.967321403E-05
   1.324500000E-02   9.965704997E+01  -2.988817750E+01  -9.801470185E+01   9.965674687E-05
   1.324600000E-02   9.965612849E+01  -2.988790064E+01  -9.802722996E+01   9.965582443E-05
   1.324700000E-02   9.965519868E+01  -2.988762239E+01  -9.803870622E+01   9.965489402E-05
   1.324800000E-02   9.965426795E+01  -2.988734393E+01  -9.804917571E+01   9.965396276E-05
   1.324900000E-02   9.965333121E+01  -2.988706244E+01  -9.805874123E+01   9.965302577E-05
   1.325000000E-02   9.974921585E+01  -1.499453027E+01  -9.806374895E+01   9.974891374E-05
   1.325100000E-02   9.984843833E+01  -9.981516872E-03  -9.803529936E+01   9.984813648E-05
   1.325200000E-02   9.982328313E+01  -4.184226608E+00  -9.801183237E+01   9.982298506E-05
   1.325300000E-02   9.975512275E+01  -1.487835807E+01  -9.799955832E+01   9.975481914E-05
   1.325400000E-02   9.967348405E+01  -2.748493154E+01  -9.800165562E+01   9.967318226E-05
   1.325500000E-02   9.965704961E+01  -2.988817857E+01  -9.801470229E+01   9.965674651E-05
   1.325600000E-02   9.965612813E+01  -2.988790244E+01  -9.802723332E+01   9.965582407E-05
   1.325700000E-02   9.965519902E+01  -2.988762439E+01  -9.803870212E+01   9.965490025E-05
   1.325800000E-02   9.965426846E+01  -2.988734445E+01  -9.804917014E+01   9.965396465E-05
   1.325900000E-02   9.965333101E+01  -2.988706392E+01  -9.805874323E+01   9.965303146E-05
   1.326000000E-02   9.974959719E+01  -1.493641176E+01  -9.806373357E+01   9.974929124E-05
   1.326100000E-02   9.984844269E+01  -9.981516831E-03  -9.803529990E+01   9.984813881E-05
   1.326200000E-02   9.982328137E+01  -4.185123740E+00  -9.801182770E+01   9.982298101E-05
   1.326300000E-02   9.975509097E+01  -1.488365367E+01  -9.799955512E+01   9.975478735E-05
   1.326400000E-02   9.967352823E+01  -2.747849440E+01  -9.800165012E+01   9.967322645E-05
   1.326500000E-02   9.965705011E+01  -2.988817872E+01  -9.801469511E+01   9.965674701E-05
   1.326600000E-02   9.965612793E+01  -2.988790238E+01  -9.802722977E+01   9.965582977E-05
   1.326700000E-02   9.965520484E+01  -2.988762429E+01  -9.803870505E+01   9.965490127E-05
   1.326800000E-02   9.965426955E+01  -2.988734434E+01  -9.804916797E+01   9.965397017E-05
   1.326900000E-02   9.965333136E+01  -2.988706402E+01  -9.805873217E+01   9.965303319E-05
   1.327000000E-02   9.974952341E+01  -1.494777039E+01  -9.806373202E+01   9.974921747E-05
   1.327100000E-02   9.984844278E+01  -9.981517189E-03  -9.803529593E+01   9.984813889E-05
   1.327200000E-02   9.982329104E+01  -4.183789288E+00  -9.801182805E+01   9.982299067E-05
   1.327300000E-02   9.975508197E+01  -1.488538192E+01  -9.799954658E+01   9.975477836E-05
   1.327400000E-02   9.967349646E+01  -2.748368073E+01  -9.800165408E+01   9.967319468E-05
   1.327500000E-02   9.965705738E+01  -2.988817934E+01  -9.801469737E+01   9.965675393E-05
   1.327600000E-02   9.965613590E+01  -2.988790248E+01  -9.802722526E+01   9.965583149E-05
   1.327700000E-02   9.965520679E+01  -2.988762444E+01  -9.803869277E+01   9.965490178E-05
   1.327800000E-02   9.965427553E+01  -2.988734582E+01  -9.804916870E+01   9.965396998E-05
   1.327900000E-02   9.965333862E+01  -2.988706428E+01  -9.805873583E+01   9.965303282E-05
   1.328000000E-02   9.974945341E+01  -1.495913483E+01  -9.806373047E+01   9.974914729E-05
   1.328100000E-02   9.984844646E+01  -9.981517271E-03  -9.803528041E+01   9.984813971E-05
   1.328200000E-02   9.982327668E+01  -4.186333214E+00  -9.801181731E+01   9.982297633E-05
   1.328300000E-02   9.975510339E+01  -1.488235397E+01  -9.799954874E+01   9.975479978E-05
   1.328400000E-02   9.967349128E+01  -2.748477979E+01  -9.800164709E+01   9.967318950E-05
   1.328500000E-02   9.965705735E+01  -2.988818051E+01  -9.801469311E+01   9.965675390E-05
   1.328600000E-02   9.965613554E+01  -2.988790428E+01  -9.802722244E+01   9.965583113E-05
   1.328700000E-02   9.965520643E+01  -2.988762624E+01  -9.803869571E+01   9.965490731E-05
   1.328800000E-02   9.965427587E+01  -2.988734629E+01  -9.804915878E+01   9.965397170E-05
   1.328900000E-02   9.965333913E+01  -2.988706597E+01  -9.805872311E+01   9.965303333E-05
   1.329000000E-02   9.974983093E+01  -1.490101632E+01  -9.806371509E+01   9.974952843E-05
   1.329100000E-02   9.984845009E+01  -9.981517739E-03  -9.803529537E+01   9.984814585E-05
   1.329200000E-02   9.982329894E+01  -4.183313402E+00  -9.801182906E+01   9.982299847E-05
   1.329300000E-02   9.975509441E+01  -1.488405371E+01  -9.799954783E+01   9.975479080E-05
   1.329400000E-02   9.967350888E+01  -2.748237652E+01  -9.800164490E+01   9.967320710E-05
   1.329500000E-02   9.965705752E+01  -2.988818057E+01  -9.801469063E+01   9.965675407E-05
   1.329600000E-02   9.965613604E+01  -2.988790443E+01  -9.802721575E+01   9.965583163E-05
   1.329700000E-02   9.965520623E+01  -2.988762618E+01  -9.803869192E+01   9.965490711E-05
   1.329800000E-02   9.965427550E+01  -2.988734618E+01  -9.804916133E+01   9.965397723E-05
   1.329900000E-02   9.965333876E+01  -2.988706586E+01  -9.805872677E+01   9.965304024E-05
   1.330000000E-02   9.974930963E+01  -1.498185885E+01  -9.806373117E+01   9.974900334E-05
   1.330100000E-02   9.984845091E+01  -9.981517821E-03  -9.803528176E+01   9.984814666E-05
   1.330200000E-02   9.982328458E+01  -4.185839164E+00  -9.801181527E+01   9.982298412E-05
   1.330300000E-02   9.975511582E+01  -1.488100101E+01  -9.799954236E+01   9.975481221E-05
   1.330400000E-02   9.967347712E+01  -2.748752344E+01  -9.800164886E+01   9.967317534E-05
   1.330500000E-02   9.965705717E+01  -2.988818118E+01  -9.801469289E+01   9.965675648E-05
   1.330600000E-02   9.965613568E+01  -2.988790432E+01  -9.802722056E+01   9.965583716E-05
   1.330700000E-02   9.965521275E+01  -2.988762628E+01  -9.803868782E+01   9.965490883E-05
   1.330800000E-02   9.965427746E+01  -2.988734787E+01  -9.804915576E+01   9.965397773E-05
   1.330900000E-02   9.965333856E+01  -2.988706617E+01  -9.805872877E+01   9.965304004E-05
   1.331000000E-02   9.974968714E+01  -1.492373939E+01  -9.806371579E+01   9.974938084E-05
   1.331100000E-02   9.984844977E+01  -9.981517707E-03  -9.803529194E+01   9.984814553E-05
   1.331200000E-02   9.982328052E+01  -4.186690571E+00  -9.801181059E+01   9.982298006E-05
   1.331300000E-02   9.975508404E+01  -1.488623131E+01  -9.799953916E+01   9.975478042E-05
   1.331400000E-02   9.967352130E+01  -2.748102272E+01  -9.800163572E+01   9.967321697E-05
   1.331500000E-02   9.965706057E+01  -2.988818251E+01  -9.801468098E+01   9.965676149E-05
   1.331600000E-02   9.965614166E+01  -2.988790617E+01  -9.802721556E+01   9.965583835E-05
   1.331700000E-02   9.965521384E+01  -2.988762808E+01  -9.803869075E+01   9.965490847E-05
   1.331800000E-02   9.965428327E+01  -2.988734813E+01  -9.804915358E+01   9.965397737E-05
   1.331900000E-02   9.965334654E+01  -2.988706627E+01  -9.805871771E+01   9.965304038E-05
   1.332000000E-02   9.974961756E+01  -1.493503879E+01  -9.806371423E+01   9.974931109E-05
   1.332100000E-02   9.984845059E+01  -9.981518138E-03  -9.803527833E+01   9.984814635E-05
   1.332200000E-02   9.982329020E+01  -4.185310897E+00  -9.801181095E+01   9.982298973E-05
   1.332300000E-02   9.975512825E+01  -1.487960009E+01  -9.799954133E+01   9.975482464E-05
   1.332400000E-02   9.967348954E+01  -2.748614732E+01  -9.800163968E+01   9.967318521E-05
   1.332500000E-02   9.965706184E+01  -2.988818219E+01  -9.801468508E+01   9.965675803E-05
   1.332600000E-02   9.965614001E+01  -2.988790524E+01  -9.802721751E+01   9.965584116E-05
   1.332700000E-02   9.965521708E+01  -2.988762719E+01  -9.803868847E+01   9.965491278E-05
   1.332800000E-02   9.965428174E+01  -2.988734879E+01  -9.804915435E+01   9.965398168E-05
   1.332900000E-02   9.965334355E+01  -2.988706728E+01  -9.805871711E+01   9.965304467E-05
   1.333000000E-02   9.974954336E+01  -1.494646341E+01  -9.806371650E+01   9.974924052E-05
   1.333100000E-02   9.984845427E+01  -9.981518220E-03  -9.803526758E+01   9.984815444E-05
   1.333200000E-02   9.982327584E+01  -4.187814015E+00  -9.801180250E+01   9.982297756E-05
   1.333300000E-02   9.975509646E+01  -1.488481074E+01  -9.799953278E+01   9.975479285E-05
   1.333400000E-02   9.967353372E+01  -2.747962629E+01  -9.800163418E+01   9.967322938E-05
   1.333500000E-02   9.965706202E+01  -2.988818344E+01  -9.801467966E+01   9.965676093E-05
   1.333600000E-02   9.965614051E+01  -2.988790730E+01  -9.802721081E+01   9.965584166E-05
   1.333700000E-02   9.965521688E+01  -2.988762904E+01  -9.803868469E+01   9.965491258E-05
   1.333800000E-02   9.965428137E+01  -2.988734903E+01  -9.804915072E+01   9.965398132E-05
   1.333900000E-02   9.965334939E+01  -2.988706717E+01  -9.805871934E+01   9.965304431E-05
   1.334000000E-02   9.974947309E+01  -1.495786900E+01  -9.806371114E+01   9.974916644E-05
   1.334100000E-02   9.984845790E+01  -9.981518688E-03  -9.803527777E+01   9.984815330E-05
   1.334200000E-02   9.982329810E+01  -4.184753774E+00  -9.801181196E+01   9.982299752E-05
   1.334300000E-02   9.975508747E+01  -1.488645441E+01  -9.799953188E+01   9.975478386E-05
   1.334400000E-02   9.967350196E+01  -2.748472991E+01  -9.800163546E+01   9.967319763E-05
   1.334500000E-02   9.965706929E+01  -2.988818333E+01  -9.801468483E+01   9.965676513E-05
   1.334600000E-02   9.965614778E+01  -2.988790719E+01  -9.802720942E+01   9.965584266E-05
   1.334700000E-02   9.965521864E+01  -2.988762914E+01  -9.803867912E+01   9.965491292E-05
   1.334800000E-02   9.965428808E+01  -2.988734918E+01  -9.804914515E+01   9.965398182E-05
   1.334900000E-02   9.965335061E+01  -2.988706866E+01  -9.805871516E+01   9.965304410E-05
   1.335000000E-02   9.974939958E+01  -1.496918648E+01  -9.806371339E+01   9.974909293E-05
   1.335100000E-02   9.984845872E+01  -9.981518770E-03  -9.803526416E+01   9.984815412E-05
   1.335200000E-02   9.982328374E+01  -4.187242361E+00  -9.801179817E+01   9.982298317E-05
   1.335300000E-02   9.975510889E+01  -1.488334850E+01  -9.799953175E+01   9.975480528E-05
   1.335400000E-02   9.967347020E+01  -2.748982466E+01  -9.800163446E+01   9.967316587E-05
   1.335500000E-02   9.965706979E+01  -2.988818348E+01  -9.801467287E+01   9.965676563E-05
   1.335600000E-02   9.965614758E+01  -2.988790713E+01  -9.802721067E+01   9.965584246E-05
   1.335700000E-02   9.965521828E+01  -2.988762903E+01  -9.803868351E+01   9.965491848E-05
   1.335800000E-02   9.965428772E+01  -2.988734908E+01  -9.804914916E+01   9.965398282E-05
   1.335900000E-02   9.965335096E+01  -2.988706876E+01  -9.805871171E+01   9.965304445E-05
   1.336000000E-02   9.974977708E+01  -1.491106701E+01  -9.806370183E+01   9.974947408E-05
   1.336100000E-02   9.984845757E+01  -9.981518656E-03  -9.803527910E+01   9.984815299E-05
   1.336200000E-02   9.982327968E+01  -4.188058015E+00  -9.801179578E+01   9.982297911E-05
   1.336300000E-02   9.975507711E+01  -1.488852715E+01  -9.799952854E+01   9.975477349E-05
   1.336400000E-02   9.967351437E+01  -2.748327436E+01  -9.800162896E+01   9.967321004E-05
   1.336500000E-02   9.965706943E+01  -2.988818409E+01  -9.801467518E+01   9.965676527E-05
   1.336600000E-02   9.965614792E+01  -2.988790723E+01  -9.802720612E+01   9.965584280E-05
   1.336700000E-02   9.965521879E+01  -2.988762918E+01  -9.803867121E+01   9.965491898E-05
   1.336800000E-02   9.965428752E+01  -2.988735057E+01  -9.804914375E+01   9.965398262E-05
   1.336900000E-02   9.965335059E+01  -2.988706901E+01  -9.805871394E+01   9.965305000E-05
   1.337000000E-02   9.974925578E+01  -1.499191051E+01  -9.806371411E+01   9.974894896E-05
   1.337100000E-02   9.984846126E+01  -9.981518738E-03  -9.803526359E+01   9.984815380E-05
   1.337200000E-02   9.982328936E+01  -4.186642861E+00  -9.801179919E+01   9.982298878E-05
   1.337300000E-02   9.975512132E+01  -1.488184768E+01  -9.799952766E+01   9.975481771E-05
   1.337400000E-02   9.967348261E+01  -2.748835003E+01  -9.800163291E+01   9.967317829E-05
   1.337500000E-02   9.965706993E+01  -2.988818543E+01  -9.801466800E+01   9.965676577E-05
   1.337600000E-02   9.965614772E+01  -2.988790908E+01  -9.802720258E+01   9.965584260E-05
   1.337700000E-02   9.965522463E+01  -2.988763098E+01  -9.803867417E+01   9.965491862E-05
   1.337800000E-02   9.965428929E+01  -2.988735103E+01  -9.804913996E+01   9.965398888E-05
   1.337900000E-02   9.965335110E+01  -2.988706916E+01  -9.805870265E+01   9.965305187E-05
   1.338000000E-02   9.974963331E+01  -1.493379103E+01  -9.806369872E+01   9.974932648E-05
   1.338100000E-02   9.984846012E+01  -9.981518624E-03  -9.803527854E+01   9.984815721E-05
   1.338200000E-02   9.982328530E+01  -4.187444999E+00  -9.801179680E+01   9.982298691E-05
   1.338300000E-02   9.975508953E+01  -1.488700888E+01  -9.799952445E+01   9.975478592E-05
   1.338400000E-02   9.967352679E+01  -2.748178190E+01  -9.800162473E+01   9.967322246E-05
   1.338500000E-02   9.965706957E+01  -2.988818532E+01  -9.801467316E+01   9.965676541E-05
   1.338600000E-02   9.965614806E+01  -2.988790918E+01  -9.802719803E+01   9.965584886E-05
   1.338700000E-02   9.965522513E+01  -2.988763113E+01  -9.803866806E+01   9.965492048E-05
   1.338800000E-02   9.965428909E+01  -2.988735097E+01  -9.804914218E+01   9.965398868E-05
   1.338900000E-02   9.965335073E+01  -2.988707060E+01  -9.805870631E+01   9.965305150E-05
   1.339000000E-02   9.974955961E+01  -1.494513740E+01  -9.806370098E+01   9.974925642E-05
   1.339100000E-02   9.984846570E+01  -9.981519056E-03  -9.803526493E+01   9.984816076E-05
   1.339200000E-02   9.982329726E+01  -4.186018202E+00  -9.801179715E+01   9.982299658E-05
   1.339300000E-02   9.975508054E+01  -1.488860735E+01  -9.799952126E+01   9.975477692E-05
   1.339400000E-02   9.967349503E+01  -2.748684040E+01  -9.800162374E+01   9.967319070E-05
   1.339500000E-02   9.965707239E+01  -2.988818531E+01  -9.801466893E+01   9.965677265E-05
   1.339600000E-02   9.965614770E+01  -2.988790907E+01  -9.802720142E+01   9.965584986E-05
   1.339700000E-02   9.965522477E+01  -2.988763102E+01  -9.803867245E+01   9.965492012E-05
   1.339800000E-02   9.965429563E+01  -2.988735107E+01  -9.804913840E+01   9.965398902E-05
   1.339900000E-02   9.965335816E+01  -2.988707054E+01  -9.805870833E+01   9.965305130E-05
   1.340000000E-02   9.974948952E+01  -1.495651410E+01  -9.806370324E+01   9.974918252E-05
   1.340100000E-02   9.984846652E+01  -9.981519720E-03  -9.803524941E+01   9.984816157E-05
   1.340200000E-02   9.982328290E+01  -4.188475182E+00  -9.801178641E+01   9.982298222E-05
   1.340300000E-02   9.975510196E+01  -1.488545465E+01  -9.799952342E+01   9.975479835E-05
   1.340400000E-02   9.967348985E+01  -2.748781837E+01  -9.800162438E+01   9.967318552E-05
   1.340500000E-02   9.965707734E+01  -2.988818537E+01  -9.801466636E+01   9.965677282E-05
   1.340600000E-02   9.965615583E+01  -2.988790922E+01  -9.802719472E+01   9.965585036E-05
   1.340700000E-02   9.965522599E+01  -2.988763096E+01  -9.803866867E+01   9.965491992E-05
   1.340800000E-02   9.965429527E+01  -2.988735096E+01  -9.804913477E+01   9.965398866E-05
   1.340900000E-02   9.965335851E+01  -2.988707065E+01  -9.805870345E+01   9.965305164E-05
   1.341000000E-02   9.974986703E+01  -1.489839463E+01  -9.806368786E+01   9.974956002E-05
   1.341100000E-02   9.984846538E+01  -9.981519605E-03  -9.803526437E+01   9.984816044E-05
   1.341200000E-02   9.982330287E+01  -4.185369736E+00  -9.801179816E+01   9.982300219E-05
   1.341300000E-02   9.975509298E+01  -1.488703577E+01  -9.799951717E+01   9.975478936E-05
   1.341400000E-02   9.967350745E+01  -2.748529835E+01  -9.800162219E+01   9.967320312E-05
   1.341500000E-02   9.965707515E+01  -2.988818547E+01  -9.801467089E+01   9.965676954E-05
   1.341600000E-02   9.965615343E+01  -2.988790928E+01  -9.802720175E+01   9.965585299E-05
   1.341700000E-02   9.965522336E+01  -2.988763096E+01  -9.803868142E+01   9.965492349E-05
   1.341800000E-02   9.965429266E+01  -2.988735251E+01  -9.804914580E+01   9.965399225E-05
   1.341900000E-02   9.965335569E+01  -2.988707090E+01  -9.805870691E+01   9.965305504E-05
   1.342000000E-02   9.974934193E+01  -1.497923813E+01  -9.806370013E+01   9.974903493E-05
   1.342100000E-02   9.984846620E+01  -9.981519687E-03  -9.803525361E+01   9.984816125E-05
   1.342200000E-02   9.982328851E+01  -4.187819155E+00  -9.801178971E+01   9.982298784E-05
   1.342300000E-02   9.975511439E+01  -1.488387358E+01  -9.799951933E+01   9.975481077E-05
   1.342400000E-02   9.967347569E+01  -2.749033710E+01  -9.800162615E+01   9.967317136E-05
   1.342500000E-02   9.965707748E+01  -2.988818732E+01  -9.801466149E+01   9.965677296E-05
   1.342600000E-02   9.965615527E+01  -2.988790941E+01  -9.802719600E+01   9.965584980E-05
   1.342700000E-02   9.965522597E+01  -2.988763251E+01  -9.803866749E+01   9.965492582E-05
   1.342800000E-02   9.965429541E+01  -2.988735291E+01  -9.804913321E+01   9.965399016E-05
   1.342900000E-02   9.965335865E+01  -2.988707105E+01  -9.805869582E+01   9.965305179E-05
   1.343000000E-02   9.974972326E+01  -1.492111865E+01  -9.806368857E+01   9.974941607E-05
   1.343100000E-02   9.984846506E+01  -9.981519573E-03  -9.803526570E+01   9.984816012E-05
   1.343200000E-02   9.982328445E+01  -4.188593179E+00  -9.801178198E+01   9.982298377E-05
   1.343300000E-02   9.975508260E+01  -1.488899443E+01  -9.799951384E+01   9.975477899E-05
   1.343400000E-02   9.967351987E+01  -2.748373084E+01  -9.800161797E+01   9.967321553E-05
   1.343500000E-02   9.965707712E+01  -2.988818721E+01  -9.801466666E+01   9.965677261E-05
   1.343600000E-02   9.965615561E+01  -2.988791107E+01  -9.802719145E+01   9.965585014E-05
   1.343700000E-02   9.965522648E+01  -2.988763302E+01  -9.803866139E+01   9.965492632E-05
   1.343800000E-02   9.965429521E+01  -2.988735285E+01  -9.804913542E+01   9.965398996E-05
   1.343900000E-02   9.965335828E+01  -2.988707094E+01  -9.805869948E+01   9.965305734E-05
   1.344000000E-02   9.974919813E+01  -1.500196120E+01  -9.806370466E+01   9.974889096E-05
   1.344100000E-02   9.984846874E+01  -9.981519655E-03  -9.803525496E+01   9.984816094E-05
   1.344200000E-02   9.982329413E+01  -4.187138991E+00  -9.801178768E+01   9.982299345E-05
   1.344300000E-02   9.975512681E+01  -1.488225951E+01  -9.799951829E+01   9.975482320E-05
   1.344400000E-02   9.967348811E+01  -2.748875118E+01  -9.800162193E+01   9.967318378E-05
   1.344500000E-02   9.965707709E+01  -2.988818720E+01  -9.801466721E+01   9.965677257E-05
   1.344600000E-02   9.965615525E+01  -2.988791096E+01  -9.802719626E+01   9.965584978E-05
   1.344700000E-02   9.965523232E+01  -2.988763291E+01  -9.803866578E+01   9.965492596E-05
   1.344800000E-02   9.965429698E+01  -2.988735295E+01  -9.804913164E+01   9.965399622E-05
   1.344900000E-02   9.965335879E+01  -2.988707264E+01  -9.805869438E+01   9.965305921E-05
   1.345000000E-02   9.974957566E+01  -1.494384173E+01  -9.806368928E+01   9.974926848E-05
   1.345100000E-02   9.984846956E+01  -9.981519737E-03  -9.803523944E+01   9.984816630E-05
   1.345200000E-02   9.982327977E+01  -4.189570620E+00  -9.801177694E+01   9.982298127E-05
   1.345300000E-02   9.975509503E+01  -1.488736701E+01  -9.799951509E+01   9.975479142E-05
   1.345400000E-02   9.967353228E+01  -2.748213091E+01  -9.800161147E+01   9.967322795E-05
   1.345500000E-02   9.965707726E+01  -2.988818725E+01  -9.801465986E+01   9.965677275E-05
   1.345600000E-02   9.965615575E+01  -2.988791111E+01  -9.802718814E+01   9.965585620E-05
   1.345700000E-02   9.965523212E+01  -2.988763285E+01  -9.803866200E+01   9.965492712E-05
   1.345800000E-02   9.965429662E+01  -2.988735284E+01  -9.804912802E+01   9.965399585E-05
   1.345900000E-02   9.965335843E+01  -2.988707253E+01  -9.805869662E+01   9.965305884E-05
   1.346000000E-02   9.974950165E+01  -1.495523506E+01  -9.806368773E+01   9.974919811E-05
   1.346100000E-02   9.984847319E+01  -9.981519623E-03  -9.803525439E+01   9.984816789E-05
   1.346200000E-02   9.982330203E+01  -4.186440379E+00  -9.801178869E+01   9.982300124E-05
   1.346300000E-02   9.975508604E+01  -1.488891466E+01  -9.799950884E+01   9.975478242E-05
   1.346400000E-02   9.967350052E+01  -2.748713981E+01  -9.800161542E+01   9.967319619E-05
   1.346500000E-02   9.965707975E+01  -2.988818714E+01  -9.801466502E+01   9.965677510E-05
   1.346600000E-02   9.965615540E+01  -2.988791100E+01  -9.802719296E+01   9.965585584E-05
   1.346700000E-02   9.965523246E+01  -2.988763295E+01  -9.803865786E+01   9.965492746E-05
   1.346800000E-02   9.965429712E+01  -2.988735299E+01  -9.804912245E+01   9.965399636E-05
   1.346900000E-02   9.965336443E+01  -2.988707247E+01  -9.805869244E+01   9.965305864E-05
   1.347000000E-02   9.974943188E+01  -1.496656480E+01  -9.806368998E+01   9.974912452E-05
   1.347100000E-02   9.984847401E+01  -9.981520054E-03  -9.803524364E+01   9.984816871E-05
   1.347200000E-02   9.982328767E+01  -4.188863422E+00  -9.801178024E+01   9.982298689E-05
   1.347300000E-02   9.975510746E+01  -1.488571332E+01  -9.799951100E+01   9.975480384E-05
   1.347400000E-02   9.967349535E+01  -2.748806852E+01  -9.800161607E+01   9.967319102E-05
   1.347500000E-02   9.965708026E+01  -2.988818729E+01  -9.801465499E+01   9.965678016E-05
   1.347600000E-02   9.965616210E+01  -2.988791115E+01  -9.802718006E+01   9.965585770E-05
   1.347700000E-02   9.965523369E+01  -2.988763289E+01  -9.803865886E+01   9.965492726E-05
   1.347800000E-02   9.965430296E+01  -2.988735444E+01  -9.804912645E+01   9.965399600E-05
   1.347900000E-02   9.965336620E+01  -2.988707293E+01  -9.805868898E+01   9.965305898E-05
   1.348000000E-02   9.974980938E+01  -1.490844627E+01  -9.806367842E+01   9.974950202E-05
   1.348100000E-02   9.984847287E+01  -9.981519941E-03  -9.803525573E+01   9.984816757E-05
   1.348200000E-02   9.982328361E+01  -4.189615983E+00  -9.801177251E+01   9.982298282E-05
   1.348300000E-02   9.975507567E+01  -1.489080337E+01  -9.799950551E+01   9.975477206E-05
   1.348400000E-02   9.967351294E+01  -2.748550364E+01  -9.800161388E+01   9.967320861E-05
   1.348500000E-02   9.965708468E+01  -2.988818790E+01  -9.801466015E+01   9.965677980E-05
   1.348600000E-02   9.965616317E+01  -2.988791104E+01  -9.802718487E+01   9.965585734E-05
   1.348700000E-02   9.965523403E+01  -2.988763299E+01  -9.803865472E+01   9.965492760E-05
   1.348800000E-02   9.965430276E+01  -2.988735438E+01  -9.804912867E+01   9.965399580E-05
   1.348900000E-02   9.965336583E+01  -2.988707282E+01  -9.805869264E+01   9.965305862E-05
   1.349000000E-02   9.974928428E+01  -1.498928883E+01  -9.806369450E+01   9.974897693E-05
   1.349100000E-02   9.984847369E+01  -9.981520605E-03  -9.803524498E+01   9.984816839E-05
   1.349200000E-02   9.982329329E+01  -4.188139451E+00  -9.801177821E+01   9.982299250E-05
   1.349300000E-02   9.975511988E+01  -1.488403646E+01  -9.799950997E+01   9.975481627E-05
   1.349400000E-02   9.967348118E+01  -2.749049593E+01  -9.800161516E+01   9.967317685E-05
   1.349500000E-02   9.965708517E+01  -2.988818924E+01  -9.801465297E+01   9.965678030E-05
   1.349600000E-02   9.965616297E+01  -2.988791134E+01  -9.802718753E+01   9.965585714E-05
   1.349700000E-02   9.965523367E+01  -2.988763444E+01  -9.803865911E+01   9.965492724E-05
   1.349800000E-02   9.965430310E+01  -2.988735484E+01  -9.804912488E+01   9.965399614E-05
   1.349900000E-02   9.965336634E+01  -2.988707297E+01  -9.805868755E+01   9.965305913E-05
   1.350000000E-02   9.974966179E+01  -1.493116935E+01  -9.806368294E+01   9.974935443E-05
   1.350100000E-02   9.984847255E+01  -9.981520490E-03  -9.803525517E+01   9.984816726E-05
   1.350200000E-02   9.982328923E+01  -4.188883496E+00  -9.801177353E+01   9.982298844E-05
   1.350300000E-02   9.975508810E+01  -1.488911520E+01  -9.799950676E+01   9.975478448E-05
   1.350400000E-02   9.967352536E+01  -2.748384649E+01  -9.800160965E+01   9.967322103E-05
   1.350500000E-02   9.965708482E+01  -2.988818913E+01  -9.801465813E+01   9.965677994E-05
   1.350600000E-02   9.965616331E+01  -2.988791299E+01  -9.802718299E+01   9.965585748E-05
   1.350700000E-02   9.965523417E+01  -2.988763494E+01  -9.803865300E+01   9.965493365E-05
   1.350800000E-02   9.965430290E+01  -2.988735478E+01  -9.804912090E+01   9.965399730E-05
   1.350900000E-02   9.965336598E+01  -2.988707286E+01  -9.805868979E+01   9.965305876E-05
   1.351000000E-02   9.974958817E+01  -1.494250346E+01  -9.806368138E+01   9.974928445E-05
   1.351100000E-02   9.984847337E+01  -9.981520573E-03  -9.803524442E+01   9.984816807E-05
   1.351200000E-02   9.982329890E+01  -4.187400383E+00  -9.801177922E+01   9.982299811E-05
   1.351300000E-02   9.975513231E+01  -1.488233981E+01  -9.799951122E+01   9.975482870E-05
   1.351400000E-02   9.967349360E+01  -2.748882733E+01  -9.800161362E+01   9.967318927E-05
   1.351500000E-02   9.965708478E+01  -2.988818912E+01  -9.801465391E+01   9.965677991E-05
   1.351600000E-02   9.965616295E+01  -2.988791288E+01  -9.802718638E+01   9.965585712E-05
   1.351700000E-02   9.965523381E+01  -2.988763483E+01  -9.803865739E+01   9.965493329E-05
   1.351800000E-02   9.965430325E+01  -2.988735488E+01  -9.804911712E+01   9.965399764E-05
   1.351900000E-02   9.965336577E+01  -2.988707435E+01  -9.805869182E+01   9.965305856E-05
   1.352000000E-02   9.974951801E+01  -1.495389242E+01  -9.806367983E+01   9.974921047E-05
   1.352100000E-02   9.984847705E+01  -9.981520655E-03  -9.803523367E+01   9.984816888E-05
   1.352200000E-02   9.982328454E+01  -4.189804661E+00  -9.801177077E+01   9.982298376E-05
   1.352300000E-02   9.975510053E+01  -1.488740739E+01  -9.799950801E+01   9.975479691E-05
   1.352400000E-02   9.967348841E+01  -2.748973323E+01  -9.800160930E+01   9.967318408E-05
   1.352500000E-02   9.965708495E+01  -2.988818918E+01  -9.801465134E+01   9.965678008E-05
   1.352600000E-02   9.965616345E+01  -2.988791303E+01  -9.802717968E+01   9.965585762E-05
   1.352700000E-02   9.965523361E+01  -2.988763477E+01  -9.803865361E+01   9.965493310E-05
   1.352800000E-02   9.965430288E+01  -2.988735477E+01  -9.804911969E+01   9.965399728E-05
   1.352900000E-02   9.965336612E+01  -2.988707446E+01  -9.805868215E+01   9.965306482E-05
   1.353000000E-02   9.974944370E+01  -1.496533271E+01  -9.806368211E+01   9.974913616E-05
   1.353100000E-02   9.984847591E+01  -9.981520540E-03  -9.803524862E+01   9.984816775E-05
   1.353200000E-02   9.982330452E+01  -4.186646897E+00  -9.801178252E+01   9.982300373E-05
   1.353300000E-02   9.975509154E+01  -1.488891595E+01  -9.799950177E+01   9.975478792E-05
   1.353400000E-02   9.967350601E+01  -2.748714157E+01  -9.800160711E+01   9.967320168E-05
   1.353500000E-02   9.965708460E+01  -2.988818907E+01  -9.801465650E+01   9.965677973E-05
   1.353600000E-02   9.965616309E+01  -2.988791293E+01  -9.802718449E+01   9.965585726E-05
   1.353700000E-02   9.965524015E+01  -2.988763488E+01  -9.803864947E+01   9.965493344E-05
   1.353800000E-02   9.965430482E+01  -2.988735492E+01  -9.804911412E+01   9.965400370E-05
   1.353900000E-02   9.965336592E+01  -2.988707440E+01  -9.805868418E+01   9.965306598E-05
   1.354000000E-02   9.974937041E+01  -1.497661550E+01  -9.806368435E+01   9.974906288E-05
   1.354100000E-02   9.984847673E+01  -9.981520623E-03  -9.803523501E+01   9.984817312E-05
   1.354200000E-02   9.982329016E+01  -4.189044903E+00  -9.801177407E+01   9.982299155E-05
   1.354300000E-02   9.975511295E+01  -1.488568051E+01  -9.799950393E+01   9.975480934E-05
   1.354400000E-02   9.967347425E+01  -2.749210782E+01  -9.800161107E+01   9.967316993E-05
   1.354500000E-02   9.965708509E+01  -2.988818922E+01  -9.801464647E+01   9.965678022E-05
   1.354600000E-02   9.965616289E+01  -2.988791287E+01  -9.802718716E+01   9.965585706E-05
   1.354700000E-02   9.965523979E+01  -2.988763477E+01  -9.803865386E+01   9.965493308E-05
   1.354800000E-02   9.965430445E+01  -2.988735481E+01  -9.804911813E+01   9.965400334E-05
   1.354900000E-02   9.965336626E+01  -2.988707450E+01  -9.805868072E+01   9.965306632E-05
   1.355000000E-02   9.974974793E+01  -1.491849601E+01  -9.806367279E+01   9.974944039E-05
   1.355100000E-02   9.984848036E+01  -9.981520508E-03  -9.803524996E+01   9.984817198E-05
   1.355200000E-02   9.982328838E+01  -4.189772802E+00  -9.801176634E+01   9.982298749E-05
   1.355300000E-02   9.975508117E+01  -1.489073607E+01  -9.799949843E+01   9.975477755E-05
   1.355400000E-02   9.967351843E+01  -2.748543607E+01  -9.800160556E+01   9.967321410E-05
   1.355500000E-02   9.965708474E+01  -2.988818911E+01  -9.801465163E+01   9.965677987E-05
   1.355600000E-02   9.965616323E+01  -2.988791297E+01  -9.802717641E+01   9.965586332E-05
   1.355700000E-02   9.965524029E+01  -2.988763492E+01  -9.803864633E+01   9.965493494E-05
   1.355800000E-02   9.965430425E+01  -2.988735475E+01  -9.804912035E+01   9.965400313E-05
   1.355900000E-02   9.965336590E+01  -2.988707439E+01  -9.805868438E+01   9.965306596E-05
   1.356000000E-02   9.974922281E+01  -1.499933857E+01  -9.806368887E+01   9.974891893E-05
   1.356100000E-02   9.984848118E+01  -9.981520590E-03  -9.803523921E+01   9.984817552E-05
   1.356200000E-02   9.982329806E+01  -4.188273066E+00  -9.801177204E+01   9.982299717E-05
   1.356300000E-02   9.975512538E+01  -1.488393646E+01  -9.799950289E+01   9.975482177E-05
   1.356400000E-02   9.967348667E+01  -2.749039536E+01  -9.800160952E+01   9.967318234E-05
   1.356500000E-02   9.965708755E+01  -2.988818910E+01  -9.801465218E+01   9.965677983E-05
   1.356600000E-02   9.965616287E+01  -2.988791286E+01  -9.802718122E+01   9.965586296E-05
   1.356700000E-02   9.965523993E+01  -2.988763481E+01  -9.803865072E+01   9.965493458E-05
   1.356800000E-02   9.965430459E+01  -2.988735640E+01  -9.804911656E+01   9.965400348E-05
   1.356900000E-02   9.965337260E+01  -2.988707490E+01  -9.805867929E+01   9.965306647E-05
   1.357000000E-02   9.974960414E+01  -1.494122004E+01  -9.806367731E+01   9.974929643E-05
   1.357100000E-02   9.984848200E+01  -9.981520673E-03  -9.803522369E+01   9.984817634E-05
   1.357200000E-02   9.982328370E+01  -4.190662532E+00  -9.801176130E+01   9.982298281E-05
   1.357300000E-02   9.975509359E+01  -1.488898425E+01  -9.799949969E+01   9.975478998E-05
   1.357400000E-02   9.967353085E+01  -2.748371599E+01  -9.800160134E+01   9.967322652E-05
   1.357500000E-02   9.965708773E+01  -2.988818987E+01  -9.801464961E+01   9.965678273E-05
   1.357600000E-02   9.965616957E+01  -2.988791301E+01  -9.802717453E+01   9.965586346E-05
   1.357700000E-02   9.965524116E+01  -2.988763475E+01  -9.803865315E+01   9.965493438E-05
   1.357800000E-02   9.965431043E+01  -2.988735630E+01  -9.804912057E+01   9.965400311E-05
   1.357900000E-02   9.965337367E+01  -2.988707479E+01  -9.805868295E+01   9.965306610E-05
   1.358000000E-02   9.974953022E+01  -1.495260111E+01  -9.806367576E+01   9.974922251E-05
   1.358100000E-02   9.984848086E+01  -9.981520558E-03  -9.803523865E+01   9.984817521E-05
   1.358200000E-02   9.982330368E+01  -4.187489826E+00  -9.801177305E+01   9.982300278E-05
   1.358300000E-02   9.975508460E+01  -1.489047283E+01  -9.799949878E+01   9.975478099E-05
   1.358400000E-02   9.967349909E+01  -2.748866697E+01  -9.800160530E+01   9.967319476E-05
   1.358500000E-02   9.965708737E+01  -2.988818976E+01  -9.801465478E+01   9.965678236E-05
   1.358600000E-02   9.965616921E+01  -2.988791290E+01  -9.802717934E+01   9.965586310E-05
   1.358700000E-02   9.965524150E+01  -2.988763485E+01  -9.803864900E+01   9.965493472E-05
   1.358800000E-02   9.965431094E+01  -2.988735645E+01  -9.804910880E+01   9.965400362E-05
   1.358900000E-02   9.965337347E+01  -2.988707473E+01  -9.805868355E+01   9.965306590E-05
   1.359000000E-02   9.974945655E+01  -1.496394312E+01  -9.806367802E+01   9.974914884E-05
   1.359100000E-02   9.984848168E+01  -9.981520640E-03  -9.803522790E+01   9.984817602E-05
   1.359200000E-02   9.982328931E+01  -4.189874007E+00  -9.801176460E+01   9.982298842E-05
   1.359300000E-02   9.975510602E+01  -1.488721569E+01  -9.799950094E+01   9.975480241E-05
   1.359400000E-02   9.967349391E+01  -2.748954202E+01  -9.800160595E+01   9.967318958E-05
   1.359500000E-02   9.965709265E+01  -2.988819110E+01  -9.801464759E+01   9.965678742E-05
   1.359600000E-02   9.965617114E+01  -2.988791341E+01  -9.802717265E+01   9.965586496E-05
   1.359700000E-02   9.965524130E+01  -2.988763634E+01  -9.803865143E+01   9.965493452E-05
   1.359800000E-02   9.965431058E+01  -2.988735670E+01  -9.804911280E+01   9.965400326E-05
   1.359900000E-02   9.965337381E+01  -2.988707483E+01  -9.805868009E+01   9.965306624E-05
   1.360000000E-02   9.974983405E+01  -1.490582363E+01  -9.806366264E+01   9.974952634E-05
   1.360100000E-02   9.984848054E+01  -9.981520876E-03  -9.803524285E+01   9.984817489E-05
   1.360200000E-02   9.982330929E+01  -4.186696192E+00  -9.801177635E+01   9.982300840E-05
   1.360300000E-02   9.975509704E+01  -1.488869632E+01  -9.799950003E+01   9.975479343E-05
   1.360400000E-02   9.967351151E+01  -2.748692457E+01  -9.800160375E+01   9.967320718E-05
   1.360500000E-02   9.965709229E+01  -2.988819100E+01  -9.801464798E+01   9.965678706E-05
   1.360600000E-02   9.965617078E+01  -2.988791485E+01  -9.802717603E+01   9.965586460E-05
   1.360700000E-02   9.965524164E+01  -2.988763680E+01  -9.803864729E+01   9.965493486E-05
   1.360800000E-02   9.965431037E+01  -2.988735663E+01  -9.804911501E+01   9.965400306E-05
   1.360900000E-02   9.965337345E+01  -2.988707472E+01  -9.805868376E+01   9.965306588E-05
   1.361000000E-02   9.974930895E+01  -1.498666620E+01  -9.806367872E+01   9.974900125E-05
   1.361100000E-02   9.984848136E+01  -9.981520957E-03  -9.803523210E+01   9.984817570E-05
   1.361200000E-02   9.982329493E+01  -4.189075751E+00  -9.801176791E+01   9.982299404E-05
   1.361300000E-02   9.975511845E+01  -1.488543497E+01  -9.799950219E+01   9.975481484E-05
   1.361400000E-02   9.967347975E+01  -2.749186602E+01  -9.800160771E+01   9.967317542E-05
   1.361500000E-02   9.965709278E+01  -2.988819114E+01  -9.801464080E+01   9.965678756E-05
   1.361600000E-02   9.965617058E+01  -2.988791479E+01  -9.802717870E+01   9.965586440E-05
   1.361700000E-02   9.965524128E+01  -2.988763669E+01  -9.803864547E+01   9.965493450E-05
   1.361800000E-02   9.965431072E+01  -2.988735674E+01  -9.804910981E+01   9.965400340E-05
   1.361900000E-02   9.965337395E+01  -2.988707487E+01  -9.805867246E+01   9.965306639E-05
   1.362000000E-02   9.974968646E+01  -1.492854671E+01  -9.806366716E+01   9.974937875E-05
   1.362100000E-02   9.984848022E+01  -9.981520844E-03  -9.803524419E+01   9.984817457E-05
   1.362200000E-02   9.982329087E+01  -4.189784978E+00  -9.801176552E+01   9.982298998E-05
   1.362300000E-02   9.975508666E+01  -1.489046397E+01  -9.799949899E+01   9.975478305E-05
   1.362400000E-02   9.967352392E+01  -2.748516824E+01  -9.800159725E+01   9.967321959E-05
   1.362500000E-02   9.965709243E+01  -2.988819104E+01  -9.801464596E+01   9.965678720E-05
   1.362600000E-02   9.965617092E+01  -2.988791489E+01  -9.802717415E+01   9.965586474E-05
   1.362700000E-02   9.965524178E+01  -2.988763685E+01  -9.803863937E+01   9.965493500E-05
   1.362800000E-02   9.965431052E+01  -2.988735668E+01  -9.804911202E+01   9.965400320E-05
   1.362900000E-02   9.965337359E+01  -2.988707632E+01  -9.805867612E+01   9.965306602E-05
   1.363000000E-02   9.974961292E+01  -1.493986856E+01  -9.806366941E+01   9.974930521E-05
   1.363100000E-02   9.984848104E+01  -9.981520926E-03  -9.803523344E+01   9.984817538E-05
   1.363200000E-02   9.982330054E+01  -4.188268104E+00  -9.801177121E+01   9.982299965E-05
   1.363300000E-02   9.975513087E+01  -1.488364091E+01  -9.799949811E+01   9.975482726E-05
   1.363400000E-02   9.967349216E+01  -2.749010397E+01  -9.800160121E+01   9.967318783E-05
   1.363500000E-02   9.965709239E+01  -2.988819103E+01  -9.801464651E+01   9.965678717E-05
   1.363600000E-02   9.965617056E+01  -2.988791479E+01  -9.802717897E+01   9.965586438E-05
   1.363700000E-02   9.965524142E+01  -2.988763674E+01  -9.803864376E+01   9.965493464E-05
   1.363800000E-02   9.965431086E+01  -2.988735678E+01  -9.804910824E+01   9.965400354E-05
   1.363900000E-02   9.965337339E+01  -2.988707626E+01  -9.805867815E+01   9.965306582E-05
   1.364000000E-02   9.974953886E+01  -1.495126979E+01  -9.806367168E+01   9.974923115E-05
   1.364100000E-02   9.984848186E+01  -9.981521007E-03  -9.803522270E+01   9.984817620E-05
   1.364200000E-02   9.982328618E+01  -4.190641092E+00  -9.801175742E+01   9.982298529E-05
   1.364300000E-02   9.975509909E+01  -1.488866418E+01  -9.799949261E+01   9.975479548E-05
   1.364400000E-02   9.967348697E+01  -2.749096383E+01  -9.800160185E+01   9.967318265E-05
   1.364500000E-02   9.965709257E+01  -2.988819108E+01  -9.801464394E+01   9.965678734E-05
   1.364600000E-02   9.965617106E+01  -2.988791494E+01  -9.802717227E+01   9.965586488E-05
   1.364700000E-02   9.965524122E+01  -2.988763668E+01  -9.803864618E+01   9.965493444E-05
   1.364800000E-02   9.965431050E+01  -2.988735667E+01  -9.804911225E+01   9.965400318E-05
   1.364900000E-02   9.965337373E+01  -2.988707636E+01  -9.805867469E+01   9.965306616E-05
   1.365000000E-02   9.974946845E+01  -1.496269782E+01  -9.806367396E+01   9.974915693E-05
   1.365100000E-02   9.984848072E+01  -9.981521475E-03  -9.803523764E+01   9.984817506E-05
   1.365200000E-02   9.982330616E+01  -4.187452074E+00  -9.801176917E+01   9.982300526E-05
   1.365300000E-02   9.975509010E+01  -1.489013042E+01  -9.799949171E+01   9.975478649E-05
   1.365400000E-02   9.967350458E+01  -2.748832981E+01  -9.800159966E+01   9.967320025E-05
   1.365500000E-02   9.965709221E+01  -2.988819097E+01  -9.801464625E+01   9.965678699E-05
   1.365600000E-02   9.965617070E+01  -2.988791483E+01  -9.802717088E+01   9.965586452E-05
   1.365700000E-02   9.965524156E+01  -2.988763678E+01  -9.803864061E+01   9.965493478E-05
   1.365800000E-02   9.965431100E+01  -2.988735682E+01  -9.804910667E+01   9.965400368E-05
   1.365900000E-02   9.965337353E+01  -2.988707630E+01  -9.805867671E+01   9.965306596E-05
   1.366000000E-02   9.974939508E+01  -1.497399286E+01  -9.806367620E+01   9.974908356E-05
   1.366100000E-02   9.984848440E+01  -9.981521558E-03  -9.803522690E+01   9.984817588E-05
   1.366200000E-02   9.982329180E+01  -4.189821098E+00  -9.801176072E+01   9.982298581E-05
   1.366300000E-02   9.975511152E+01  -1.488685281E+01  -9.799949386E+01   9.975480572E-05
   1.366400000E-02   9.967347282E+01  -2.749325723E+01  -9.800160362E+01   9.967316849E-05
   1.366500000E-02   9.965709271E+01  -2.988819112E+01  -9.801463907E+01   9.965678748E-05
   1.366600000E-02   9.965617050E+01  -2.988791477E+01  -9.802717354E+01   9.965586432E-05
   1.366700000E-02   9.965524120E+01  -2.988763667E+01  -9.803864500E+01   9.965494034E-05
   1.366800000E-02   9.965431064E+01  -2.988735671E+01  -9.804911068E+01   9.965400468E-05
   1.366900000E-02   9.965337387E+01  -2.988707640E+01  -9.805867326E+01   9.965306631E-05
   1.367000000E-02   9.974977260E+01  -1.491587338E+01  -9.806366464E+01   9.974946471E-05
   1.367100000E-02   9.984848326E+01  -9.981521443E-03  -9.803523708E+01   9.984817475E-05
   1.367200000E-02   9.982328773E+01  -4.190521159E+00  -9.801175604E+01   9.982298175E-05
   1.367300000E-02   9.975507973E+01  -1.489186831E+01  -9.799949066E+01   9.975477394E-05
   1.367400000E-02   9.967351700E+01  -2.748654611E+01  -9.800159811E+01   9.967321267E-05
   1.367500000E-02   9.965709235E+01  -2.988819101E+01  -9.801464423E+01   9.965678713E-05
   1.367600000E-02   9.965617084E+01  -2.988791487E+01  -9.802716900E+01   9.965586466E-05
   1.367700000E-02   9.965524170E+01  -2.988763682E+01  -9.803863890E+01   9.965494084E-05
   1.367800000E-02   9.965431044E+01  -2.988735665E+01  -9.804911290E+01   9.965400448E-05
   1.367900000E-02   9.965337351E+01  -2.988707629E+01  -9.805867692E+01   9.965306594E-05
   1.368000000E-02   9.974924748E+01  -1.499671594E+01  -9.806368072E+01   9.974893960E-05
   1.368100000E-02   9.984848408E+01  -9.981521525E-03  -9.803522633E+01   9.984817556E-05
   1.368200000E-02   9.982329741E+01  -4.188994056E+00  -9.801176174E+01   9.982299143E-05
   1.368300000E-02   9.975512394E+01  -1.488503042E+01  -9.799949512E+01   9.975481815E-05
   1.368400000E-02   9.967348524E+01  -2.749146781E+01  -9.800160207E+01   9.967318091E-05
   1.368500000E-02   9.965709285E+01  -2.988819116E+01  -9.801463705E+01   9.965678762E-05
   1.368600000E-02   9.965617064E+01  -2.988791481E+01  -9.802717166E+01   9.965586446E-05
   1.368700000E-02   9.965524134E+01  -2.988763671E+01  -9.803864329E+01   9.965494048E-05
   1.368800000E-02   9.965431078E+01  -2.988735676E+01  -9.804910911E+01   9.965400482E-05
   1.368900000E-02   9.965337402E+01  -2.988707644E+01  -9.805867183E+01   9.965306645E-05
   1.369000000E-02   9.974962500E+01  -1.493859645E+01  -9.806366534E+01   9.974931711E-05
   1.369100000E-02   9.984848367E+01  -9.981521485E-03  -9.803523164E+01   9.984817516E-05
   1.369200000E-02   9.982329335E+01  -4.189689936E+00  -9.801175935E+01   9.982298737E-05
   1.369300000E-02   9.975509216E+01  -1.489004182E+01  -9.799949191E+01   9.975478636E-05
   1.369400000E-02   9.967352942E+01  -2.748475221E+01  -9.800159656E+01   9.967322508E-05
   1.369500000E-02   9.965709249E+01  -2.988819106E+01  -9.801464222E+01   9.965678727E-05
   1.369600000E-02   9.965617098E+01  -2.988791491E+01  -9.802716711E+01   9.965586480E-05
   1.369700000E-02   9.965524735E+01  -2.988763665E+01  -9.803864572E+01   9.965494028E-05
   1.369800000E-02   9.965431184E+01  -2.988735665E+01  -9.804911312E+01   9.965400446E-05
   1.369900000E-02   9.965337365E+01  -2.988707633E+01  -9.805867549E+01   9.965306608E-05
   1.370000000E-02   9.974955115E+01  -1.494996526E+01  -9.806366761E+01   9.974924327E-05
   1.370100000E-02   9.984848376E+01  -9.981521493E-03  -9.803523053E+01   9.984817524E-05
   1.370200000E-02   9.982330303E+01  -4.188160305E+00  -9.801176504E+01   9.982299704E-05
   1.370300000E-02   9.975508317E+01  -1.489149599E+01  -9.799949101E+01   9.975477737E-05
   1.370400000E-02   9.967349766E+01  -2.748966885E+01  -9.800159785E+01   9.967319333E-05
   1.370500000E-02   9.965709213E+01  -2.988819095E+01  -9.801464738E+01   9.965678691E-05
   1.370600000E-02   9.965617062E+01  -2.988791481E+01  -9.802717193E+01   9.965586444E-05
   1.370700000E-02   9.965524769E+01  -2.988763676E+01  -9.803864157E+01   9.965494062E-05
   1.370800000E-02   9.965431235E+01  -2.988735835E+01  -9.804910135E+01   9.965400496E-05
   1.370900000E-02   9.965337345E+01  -2.988707663E+01  -9.805867609E+01   9.965307180E-05
   1.371000000E-02   9.974947740E+01  -1.496132048E+01  -9.806366987E+01   9.974916951E-05
   1.371100000E-02   9.984848457E+01  -9.981521575E-03  -9.803521978E+01   9.984817606E-05
   1.371200000E-02   9.982328866E+01  -4.190521101E+00  -9.801175659E+01   9.982298268E-05
   1.371300000E-02   9.975510459E+01  -1.488820579E+01  -9.799949316E+01   9.975479879E-05
   1.371400000E-02   9.967349248E+01  -2.749051189E+01  -9.800159850E+01   9.967318815E-05
   1.371500000E-02   9.965709263E+01  -2.988819110E+01  -9.801464020E+01   9.965678741E-05
   1.371600000E-02   9.965617112E+01  -2.988791496E+01  -9.802716523E+01   9.965586494E-05
   1.371700000E-02   9.965524749E+01  -2.988763670E+01  -9.803864400E+01   9.965494042E-05
   1.371800000E-02   9.965431198E+01  -2.988735824E+01  -9.804910535E+01   9.965400460E-05
   1.371900000E-02   9.965337379E+01  -2.988707673E+01  -9.805867263E+01   9.965307214E-05
   1.372000000E-02   9.974985492E+01  -1.490320099E+01  -9.806365449E+01   9.974954703E-05
   1.372100000E-02   9.984848820E+01  -9.981521461E-03  -9.803523474E+01   9.984817492E-05
   1.372200000E-02   9.982331094E+01  -4.187320184E+00  -9.801176834E+01   9.982300266E-05
   1.372300000E-02   9.975509560E+01  -1.488965420E+01  -9.799949226E+01   9.975478981E-05
   1.372400000E-02   9.967351007E+01  -2.748786227E+01  -9.800159630E+01   9.967320574E-05
   1.372500000E-02   9.965709227E+01  -2.988819170E+01  -9.801464536E+01   9.965678705E-05
   1.372600000E-02   9.965617076E+01  -2.988791485E+01  -9.802717005E+01   9.965586458E-05
   1.372700000E-02   9.965524783E+01  -2.988763680E+01  -9.803863985E+01   9.965494076E-05
   1.372800000E-02   9.965431178E+01  -2.988735818E+01  -9.804910757E+01   9.965400440E-05
   1.372900000E-02   9.965337343E+01  -2.988707662E+01  -9.805867629E+01   9.965307178E-05
   1.373000000E-02   9.974932980E+01  -1.498404356E+01  -9.806367057E+01   9.974902192E-05
   1.373100000E-02   9.984848902E+01  -9.981521543E-03  -9.803522399E+01   9.984817574E-05
   1.373200000E-02   9.982329657E+01  -4.189678007E+00  -9.801175989E+01   9.982298830E-05
   1.373300000E-02   9.975511701E+01  -1.488636184E+01  -9.799949442E+01   9.975481122E-05
   1.373400000E-02   9.967347831E+01  -2.749277443E+01  -9.800160026E+01   9.967317399E-05
   1.373500000E-02   9.965709277E+01  -2.988819185E+01  -9.801463818E+01   9.965678755E-05
   1.373600000E-02   9.965617056E+01  -2.988791479E+01  -9.802717271E+01   9.965586438E-05
   1.373700000E-02   9.965524747E+01  -2.988763669E+01  -9.803864424E+01   9.965494040E-05
   1.373800000E-02   9.965431213E+01  -2.988735828E+01  -9.804910378E+01   9.965401066E-05
   1.373900000E-02   9.965337394E+01  -2.988707678E+01  -9.805867120E+01   9.965307365E-05
   1.374000000E-02   9.974970732E+01  -1.492592407E+01  -9.806365901E+01   9.974939943E-05
   1.374100000E-02   9.984848788E+01  -9.981521429E-03  -9.803523894E+01   9.984817915E-05
   1.374200000E-02   9.982329251E+01  -4.190366715E+00  -9.801175750E+01   9.982298642E-05
   1.374300000E-02   9.975508523E+01  -1.489136194E+01  -9.799949121E+01   9.975477434E-05
   1.374400000E-02   9.967352249E+01  -2.748604739E+01  -9.800159475E+01   9.967321816E-05
   1.374500000E-02   9.965709241E+01  -2.988819175E+01  -9.801464334E+01   9.965678719E-05
   1.374600000E-02   9.965617090E+01  -2.988791489E+01  -9.802716816E+01   9.965586472E-05
   1.374700000E-02   9.965524797E+01  -2.988763684E+01  -9.803863814E+01   9.965494090E-05
   1.374800000E-02   9.965431193E+01  -2.988735822E+01  -9.804910600E+01   9.965401046E-05
   1.374900000E-02   9.965337357E+01  -2.988707667E+01  -9.805866866E+01   9.965307328E-05
   1.375000000E-02   9.974963767E+01  -1.493723366E+01  -9.806366126E+01   9.974932597E-05
   1.375100000E-02   9.984848870E+01  -9.981521511E-03  -9.803522819E+01   9.984817997E-05
   1.375200000E-02   9.982330219E+01  -4.188829879E+00  -9.801176320E+01   9.982299610E-05
   1.375300000E-02   9.975512944E+01  -1.488451042E+01  -9.799949567E+01   9.975481855E-05
   1.375400000E-02   9.967349073E+01  -2.749095574E+01  -9.800159871E+01   9.967318640E-05
   1.375500000E-02   9.965709522E+01  -2.988819173E+01  -9.801464389E+01   9.965678715E-05
   1.375600000E-02   9.965617054E+01  -2.988791478E+01  -9.802717298E+01   9.965586436E-05
   1.375700000E-02   9.965524761E+01  -2.988763673E+01  -9.803863632E+01   9.965494054E-05
   1.375800000E-02   9.965431227E+01  -2.988735833E+01  -9.804910079E+01   9.965401080E-05
   1.375900000E-02   9.965338028E+01  -2.988707682E+01  -9.805866356E+01   9.965307379E-05
   1.376000000E-02   9.974956354E+01  -1.494864715E+01  -9.806366353E+01   9.974925183E-05
   1.376100000E-02   9.984848952E+01  -9.981521593E-03  -9.803521458E+01   9.984818079E-05
   1.376200000E-02   9.982328782E+01  -4.191183758E+00  -9.801175475E+01   9.982298173E-05
   1.376300000E-02   9.975509766E+01  -1.488950670E+01  -9.799949247E+01   9.975478677E-05
   1.376400000E-02   9.967353491E+01  -2.748422555E+01  -9.800159320E+01   9.967323057E-05
   1.376500000E-02   9.965709540E+01  -2.988819298E+01  -9.801463655E+01   9.965678733E-05
   1.376600000E-02   9.965617104E+01  -2.988791529E+01  -9.802716485E+01   9.965586486E-05
   1.376700000E-02   9.965524741E+01  -2.988763822E+01  -9.803863875E+01   9.965494034E-05
   1.376800000E-02   9.965431190E+01  -2.988735857E+01  -9.804910480E+01   9.965401044E-05
   1.376900000E-02   9.965337992E+01  -2.988707671E+01  -9.805866723E+01   9.965307342E-05
   1.377000000E-02   9.974948939E+01  -1.496006292E+01  -9.806366580E+01   9.974917768E-05
   1.377100000E-02   9.984848838E+01  -9.981521479E-03  -9.803522953E+01   9.984817965E-05
   1.377200000E-02   9.982330780E+01  -4.187976387E+00  -9.801176650E+01   9.982300171E-05
   1.377300000E-02   9.975508867E+01  -1.489094672E+01  -9.799949156E+01   9.975477778E-05
   1.377400000E-02   9.967350315E+01  -2.748913008E+01  -9.800159716E+01   9.967319882E-05
   1.377500000E-02   9.965709504E+01  -2.988819287E+01  -9.801464170E+01   9.965678697E-05
   1.377600000E-02   9.965617068E+01  -2.988791673E+01  -9.802716967E+01   9.965586450E-05
   1.377700000E-02   9.965524775E+01  -2.988763868E+01  -9.803863461E+01   9.965494068E-05
   1.377800000E-02   9.965431861E+01  -2.988735873E+01  -9.804909923E+01   9.965401094E-05
   1.377900000E-02   9.965338114E+01  -2.988707665E+01  -9.805866925E+01   9.965307322E-05
   1.378000000E-02   9.974941594E+01  -1.497137023E+01  -9.806366805E+01   9.974910424E-05
   1.378100000E-02   9.984848920E+01  -9.981521561E-03  -9.803521878E+01   9.984818047E-05
   1.378200000E-02   9.982329344E+01  -4.190327954E+00  -9.801175805E+01   9.982298735E-05
   1.378300000E-02   9.975511008E+01  -1.488764397E+01  -9.799949372E+01   9.975479919E-05
   1.378400000E-02   9.967347139E+01  -2.749403270E+01  -9.800160113E+01   9.967316706E-05
   1.378500000E-02   9.965709555E+01  -2.988819302E+01  -9.801463453E+01   9.965678747E-05
   1.378600000E-02   9.965617669E+01  -2.988791667E+01  -9.802717234E+01   9.965586430E-05
   1.378700000E-02   9.965524881E+01  -2.988763857E+01  -9.803863899E+01   9.965494032E-05
   1.378800000E-02   9.965431825E+01  -2.988735862E+01  -9.804910323E+01   9.965401058E-05
   1.378900000E-02   9.965338149E+01  -2.988707675E+01  -9.805866579E+01   9.965307357E-05
   1.379000000E-02   9.974979345E+01  -1.491325074E+01  -9.806365649E+01   9.974948175E-05
   1.379100000E-02   9.984848806E+01  -9.981521447E-03  -9.803523373E+01   9.984817933E-05
   1.379200000E-02   9.982328937E+01  -4.191011152E+00  -9.801175566E+01   9.982298328E-05
   1.379300000E-02   9.975507830E+01  -1.489263615E+01  -9.799948517E+01   9.975476741E-05
   1.379400000E-02   9.967351556E+01  -2.748729803E+01  -9.800159561E+01   9.967321123E-05
   1.379500000E-02   9.965709518E+01  -2.988819292E+01  -9.801463969E+01   9.965678711E-05
   1.379600000E-02   9.965617703E+01  -2.988791677E+01  -9.802716779E+01   9.965587056E-05
   1.379700000E-02   9.965524932E+01  -2.988763872E+01  -9.803863289E+01   9.965494218E-05
   1.379800000E-02   9.965431805E+01  -2.988735856E+01  -9.804910545E+01   9.965401038E-05
   1.379900000E-02   9.965338112E+01  -2.988707664E+01  -9.805866945E+01   9.965307320E-05
   1.380000000E-02   9.974926835E+01  -1.499409331E+01  -9.806367257E+01   9.974896029E-05
   1.380100000E-02   9.984848888E+01  -9.981521529E-03  -9.803522298E+01   9.984818287E-05
   1.380200000E-02   9.982329905E+01  -4.189467788E+00  -9.801175602E+01   9.982299296E-05
   1.380300000E-02   9.975512251E+01  -1.488577537E+01  -9.799948734E+01   9.975481162E-05
   1.380400000E-02   9.967348380E+01  -2.749219751E+01  -9.800159462E+01   9.967317948E-05
   1.380500000E-02   9.965710046E+01  -2.988819307E+01  -9.801463251E+01   9.965678761E-05
   1.380600000E-02   9.965617825E+01  -2.988791671E+01  -9.802717045E+01   9.965587036E-05
   1.380700000E-02   9.965524896E+01  -2.988763862E+01  -9.803863728E+01   9.965494182E-05
   1.380800000E-02   9.965431839E+01  -2.988735866E+01  -9.804910167E+01   9.965401072E-05
   1.380900000E-02   9.965338163E+01  -2.988707680E+01  -9.805866436E+01   9.965307371E-05
   1.381000000E-02   9.974964585E+01  -1.493597382E+01  -9.806366101E+01   9.974933779E-05
   1.381100000E-02   9.984848848E+01  -9.981521489E-03  -9.803522829E+01   9.984818247E-05
   1.381200000E-02   9.982329499E+01  -4.190148138E+00  -9.801175363E+01   9.982298890E-05
   1.381300000E-02   9.975509072E+01  -1.489076403E+01  -9.799948414E+01   9.975477983E-05
   1.381400000E-02   9.967352798E+01  -2.748546093E+01  -9.800158911E+01   9.967322365E-05
   1.381500000E-02   9.965710010E+01  -2.988819296E+01  -9.801463767E+01   9.965678725E-05
   1.381600000E-02   9.965617859E+01  -2.988791682E+01  -9.802716590E+01   9.965587070E-05
   1.381700000E-02   9.965524875E+01  -2.988763856E+01  -9.803863971E+01   9.965494162E-05
   1.381800000E-02   9.965431803E+01  -2.988735855E+01  -9.804910567E+01   9.965401036E-05
   1.381900000E-02   9.965338126E+01  -2.988707669E+01  -9.805866802E+01   9.965307334E-05
   1.382000000E-02   9.974957209E+01  -1.494733037E+01  -9.806366327E+01   9.974926402E-05
   1.382100000E-02   9.984848856E+01  -9.981521497E-03  -9.803522719E+01   9.984818255E-05
   1.382200000E-02   9.982330467E+01  -4.188603931E+00  -9.801175932E+01   9.982299858E-05
   1.382300000E-02   9.975508173E+01  -1.489219891E+01  -9.799948323E+01   9.975477084E-05
   1.382400000E-02   9.967349622E+01  -2.749035783E+01  -9.800159307E+01   9.967319189E-05
   1.382500000E-02   9.965709975E+01  -2.988819285E+01  -9.801464283E+01   9.965678689E-05
   1.382600000E-02   9.965617823E+01  -2.988791671E+01  -9.802717072E+01   9.965587034E-05
   1.382700000E-02   9.965524910E+01  -2.988763866E+01  -9.803863557E+01   9.965494196E-05
   1.382800000E-02   9.965431853E+01  -2.988735870E+01  -9.804910010E+01   9.965401086E-05
   1.382900000E-02   9.965338106E+01  -2.988707818E+01  -9.805867005E+01   9.965307314E-05
   1.383000000E-02   9.974949826E+01  -1.495869689E+01  -9.806366553E+01   9.974919020E-05
   1.383100000E-02   9.984848938E+01  -9.981521579E-03  -9.803521644E+01   9.984818337E-05
   1.383200000E-02   9.982329030E+01  -4.190950561E+00  -9.801175087E+01   9.982298421E-05
[...]
   2.478400000E-02   1.007906244E+02  -3.022814996E+01  -9.606253769E+01   3.351681174E+01
   2.478500000E-02   1.007939630E+02  -3.022915108E+01  -9.605612062E+01   3.350464345E+01
   2.478600000E-02   1.007973039E+02  -3.023015220E+01  -9.604970051E+01   3.349256171E+01
   2.478700000E-02   1.008006438E+02  -3.023115462E+01  -9.604326973E+01   3.348055206E+01
   2.478800000E-02   1.008039842E+02  -3.023215496E+01  -9.603684373E+01   3.346863920E+01
   2.478900000E-02   1.008073197E+02  -3.023315551E+01  -9.603042133E+01   3.345682338E+01
   2.479000000E-02   1.008106531E+02  -3.023415644E+01  -9.602399553E+01   3.344509894E+01
   2.479100000E-02   1.008139936E+02  -3.023515802E+01  -9.601756824E+01   3.343347343E+01
   2.479200000E-02   1.008173271E+02  -3.023615886E+01  -9.601114114E+01   3.342194558E+01
   2.479300000E-02   1.008206657E+02  -3.023715864E+01  -9.600471645E+01   3.341051143E+01
   2.479400000E-02   1.008240012E+02  -3.023815919E+01  -9.599828871E+01   3.339917490E+01
   2.479500000E-02   1.008273441E+02  -3.023916161E+01  -9.599185029E+01   3.338792173E+01
   2.479600000E-02   1.008306815E+02  -3.024016195E+01  -9.598541666E+01   3.337678158E+01
   2.479700000E-02   1.008340148E+02  -3.024116250E+01  -9.597898663E+01   3.336574912E+01
   2.479800000E-02   1.008373480E+02  -3.024216228E+01  -9.597255660E+01   3.335482112E+01
   2.479900000E-02   1.008406866E+02  -3.024316282E+01  -9.596612122E+01   3.334399989E+01
   2.480000000E-02   1.008440216E+02  -3.024416278E+01  -9.595968487E+01   3.333326869E+01
   2.480100000E-02   1.008473552E+02  -3.024516224E+01  -9.595325592E+01   3.332267512E+01
   2.480200000E-02   1.008506930E+02  -3.024616367E+01  -9.594681510E+01   3.331216959E+01
   2.480300000E-02   1.008540281E+02  -3.024716401E+01  -9.594037385E+01   3.330177356E+01
   2.480400000E-02   1.008573613E+02  -3.024816322E+01  -9.593394153E+01   3.329149816E+01
   2.480500000E-02   1.008606946E+02  -3.024916243E+01  -9.592750615E+01   3.328133294E+01
   2.480600000E-02   1.008640225E+02  -3.025016164E+01  -9.592106849E+01   3.327128250E+01
   2.480700000E-02   1.008673534E+02  -3.025116085E+01  -9.591463083E+01   3.326134491E+01
   2.480800000E-02   1.008706867E+02  -3.025216006E+01  -9.590819851E+01   3.325152323E+01
   2.480900000E-02   1.008740146E+02  -3.025315927E+01  -9.590176314E+01   3.324181975E+01
   2.481000000E-02   1.008773488E+02  -3.025415865E+01  -9.589532298E+01   3.323221706E+01
   2.481100000E-02   1.008806777E+02  -3.025515737E+01  -9.588887795E+01   3.322275034E+01
   2.481200000E-02   1.008840106E+02  -3.025615685E+01  -9.588243816E+01   3.321340116E+01
   2.481300000E-02   1.008873385E+02  -3.025715473E+01  -9.587600050E+01   3.320417070E+01
   2.481400000E-02   1.008906641E+02  -3.025815337E+01  -9.586956284E+01   3.319505843E+01
   2.481500000E-02   1.008939951E+02  -3.025915124E+01  -9.586312518E+01   3.318606970E+01
   2.481600000E-02   1.008973230E+02  -3.026014855E+01  -9.585668752E+01   3.317720146E+01
   2.481700000E-02   1.009006486E+02  -3.026114585E+01  -9.585024986E+01   3.316845675E+01
   2.481800000E-02   1.009039786E+02  -3.026214445E+01  -9.584380380E+01   3.315982401E+01
   2.481900000E-02   1.009073007E+02  -3.026314232E+01  -9.583736255E+01   3.315131991E+01
   2.482000000E-02   1.009106257E+02  -3.026413829E+01  -9.583092837E+01   3.314293997E+01
   2.482100000E-02   1.009139500E+02  -3.026513558E+01  -9.582448486E+01   3.313469838E+01
   2.482200000E-02   1.009172699E+02  -3.026613098E+01  -9.581804956E+01   3.312657846E+01
   2.482300000E-02   1.009205932E+02  -3.026712771E+01  -9.581161190E+01   3.311858016E+01
   2.482400000E-02   1.009239135E+02  -3.026812368E+01  -9.580517958E+01   3.311070616E+01
   2.482500000E-02   1.009272315E+02  -3.026911908E+01  -9.579874421E+01   3.310295951E+01
   2.482600000E-02   1.009305538E+02  -3.027011578E+01  -9.579229815E+01   3.309532994E+01
   2.482700000E-02   1.009338737E+02  -3.027111173E+01  -9.578585690E+01   3.308783476E+01
   2.482800000E-02   1.009371916E+02  -3.027210712E+01  -9.577942458E+01   3.308046810E+01
   2.482900000E-02   1.009405096E+02  -3.027310119E+01  -9.577298920E+01   3.307323147E+01
   2.483000000E-02   1.009438301E+02  -3.027409599E+01  -9.576654902E+01   3.306610739E+01
   2.483100000E-02   1.009471418E+02  -3.027509021E+01  -9.576011914E+01   3.305913812E+01
   2.483200000E-02   1.009504560E+02  -3.027608356E+01  -9.575368918E+01   3.305228987E+01
   2.483300000E-02   1.009537729E+02  -3.027707835E+01  -9.574724542E+01   3.304555391E+01
   2.483400000E-02   1.009570852E+02  -3.027807239E+01  -9.574080951E+01   3.303895435E+01
   2.483500000E-02   1.009603955E+02  -3.027906588E+01  -9.573437948E+01   3.303248395E+01
   2.483600000E-02   1.009637059E+02  -3.028005937E+01  -9.572794944E+01   3.302614358E+01
   2.483700000E-02   1.009670162E+02  -3.028105153E+01  -9.572151941E+01   3.301993132E+01
   2.483800000E-02   1.009703266E+02  -3.028204311E+01  -9.571508938E+01   3.301384756E+01
   2.483900000E-02   1.009736316E+02  -3.028303469E+01  -9.570865934E+01   3.300789076E+01
   2.484000000E-02   1.009769399E+02  -3.028402701E+01  -9.570222910E+01   3.300205089E+01
   2.484100000E-02   1.009802478E+02  -3.028501929E+01  -9.569579648E+01   3.299635629E+01
   2.484200000E-02   1.009835536E+02  -3.028601129E+01  -9.568936489E+01   3.299078827E+01
   2.484300000E-02   1.009868563E+02  -3.028700154E+01  -9.568294020E+01   3.298534378E+01
   2.484400000E-02   1.009901591E+02  -3.028799121E+01  -9.567651780E+01   3.298002931E+01
   2.484500000E-02   1.009934618E+02  -3.028898222E+01  -9.567009539E+01   3.297484028E+01
   2.484600000E-02   1.009967592E+02  -3.028997247E+01  -9.566367299E+01   3.296977860E+01
   2.484700000E-02   1.010000596E+02  -3.029096081E+01  -9.565725058E+01   3.296484655E+01
   2.484800000E-02   1.010033570E+02  -3.029194992E+01  -9.565082817E+01   3.296003881E+01
   2.484900000E-02   1.010066565E+02  -3.029294088E+01  -9.564439739E+01   3.295535237E+01
   2.485000000E-02   1.010099574E+02  -3.029392845E+01  -9.563797947E+01   3.295078714E+01
   2.485100000E-02   1.010132488E+02  -3.029491670E+01  -9.563156523E+01   3.294636705E+01
   2.485200000E-02   1.010165436E+02  -3.029590531E+01  -9.562514185E+01   3.294206501E+01
   2.485300000E-02   1.010198387E+02  -3.029689175E+01  -9.561872478E+01   3.293788548E+01
   2.485400000E-02   1.010231285E+02  -3.029787894E+01  -9.561231000E+01   3.293383177E+01
   2.485500000E-02   1.010264160E+02  -3.029886538E+01  -9.560590056E+01   3.292990123E+01
   2.485600000E-02   1.010297034E+02  -3.029985124E+01  -9.559948807E+01   3.292609536E+01
   2.485700000E-02   1.010329952E+02  -3.030083839E+01  -9.559307027E+01   3.292240522E+01
   2.485800000E-02   1.010362845E+02  -3.030182480E+01  -9.558665420E+01   3.291884157E+01
   2.485900000E-02   1.010395720E+02  -3.030281066E+01  -9.558024476E+01   3.291540311E+01
   2.486000000E-02   1.010428535E+02  -3.030379558E+01  -9.557384642E+01   3.291207581E+01
   2.486100000E-02   1.010461349E+02  -3.030477928E+01  -9.556743630E+01   3.290888552E+01
   2.486200000E-02   1.010494138E+02  -3.030576310E+01  -9.556103094E+01   3.290581331E+01
   2.486300000E-02   1.010526937E+02  -3.030674706E+01  -9.555462912E+01   3.290285641E+01
   2.486400000E-02   1.010559778E+02  -3.030773230E+01  -9.554822125E+01   3.290001406E+01
   2.486500000E-02   1.010592595E+02  -3.030871546E+01  -9.554181816E+01   3.289729222E+01
   2.486600000E-02   1.010625340E+02  -3.030969751E+01  -9.553541863E+01   3.289469014E+01
   2.486700000E-02   1.010658116E+02  -3.031067956E+01  -9.552901911E+01   3.289220359E+01
   2.486800000E-02   1.010690861E+02  -3.031166161E+01  -9.552262493E+01   3.288983409E+01
   2.486900000E-02   1.010723583E+02  -3.031264366E+01  -9.551622769E+01   3.288758013E+01
   2.487000000E-02   1.010756307E+02  -3.031362453E+01  -9.550983331E+01   3.288542907E+01
   2.487100000E-02   1.010788966E+02  -3.031460493E+01  -9.550344630E+01   3.288341489E+01
   2.487200000E-02   1.010821663E+02  -3.031558593E+01  -9.549704901E+01   3.288150324E+01
   2.487300000E-02   1.010854380E+02  -3.031656662E+01  -9.549065354E+01   3.287970217E+01
   2.487400000E-02   1.010887049E+02  -3.031754543E+01  -9.548426699E+01   3.287801386E+01
   2.487500000E-02   1.010919695E+02  -3.031852500E+01  -9.547788272E+01   3.287643613E+01
   2.487600000E-02   1.010952288E+02  -3.031950381E+01  -9.547149845E+01   3.287496897E+01
   2.487700000E-02   1.010984911E+02  -3.032048204E+01  -9.546511952E+01   3.287360971E+01
   2.487800000E-02   1.011017503E+02  -3.032145894E+01  -9.545873755E+01   3.287235721E+01
   2.487900000E-02   1.011050073E+02  -3.032243660E+01  -9.545235861E+01   3.287121414E+01
   2.488000000E-02   1.011082675E+02  -3.032341347E+01  -9.544598257E+01   3.287016525E+01
   2.488100000E-02   1.011115277E+02  -3.032439095E+01  -9.543960146E+01   3.286924261E+01
   2.488200000E-02   1.011147843E+02  -3.032536798E+01  -9.543322444E+01   3.286841831E+01
   2.488300000E-02   1.011180359E+02  -3.032634297E+01  -9.542685314E+01   3.286769332E+01
   2.488400000E-02   1.011212853E+02  -3.032731873E+01  -9.542048413E+01   3.286707129E+01
   2.488500000E-02   1.011245346E+02  -3.032829372E+01  -9.541411511E+01   3.286655220E+01
   2.488600000E-02   1.011277839E+02  -3.032926814E+01  -9.540774610E+01   3.286613340E+01
   2.488700000E-02   1.011310333E+02  -3.033024123E+01  -9.540138242E+01   3.286581372E+01
   2.488800000E-02   1.011342869E+02  -3.033121635E+01  -9.539501274E+01   3.286559027E+01
   2.488900000E-02   1.011375327E+02  -3.033218997E+01  -9.538864780E+01   3.286546512E+01
   2.489000000E-02   1.011407738E+02  -3.033316231E+01  -9.538228989E+01   3.286543083E+01
   2.489100000E-02   1.011440170E+02  -3.033413527E+01  -9.537593031E+01   3.286550810E+01
   2.489200000E-02   1.011472578E+02  -3.033510618E+01  -9.536957661E+01   3.286567301E+01
   2.489300000E-02   1.011504942E+02  -3.033607812E+01  -9.536322286E+01   3.286593040E+01
   2.489400000E-02   1.011537336E+02  -3.033704930E+01  -9.535686910E+01   3.286627779E+01
   2.489500000E-02   1.011569700E+02  -3.033801991E+01  -9.535052067E+01   3.286671820E+01
   2.489600000E-02   1.011602083E+02  -3.033899045E+01  -9.534416093E+01   3.286724932E+01
   2.489700000E-02   1.011634442E+02  -3.033996103E+01  -9.533780896E+01   3.286786790E+01
   2.489800000E-02   1.011666729E+02  -3.034093030E+01  -9.533146817E+01   3.286857385E+01
   2.489900000E-02   1.011699047E+02  -3.034189900E+01  -9.532512433E+01   3.286936750E+01
   2.490000000E-02   1.011731351E+02  -3.034286728E+01  -9.531878032E+01   3.287024153E+01
   2.490100000E-02   1.011763591E+02  -3.034383505E+01  -9.531244384E+01   3.287121264E+01
   2.490200000E-02   1.011795864E+02  -3.034480186E+01  -9.530610653E+01   3.287226282E+01
   2.490300000E-02   1.011828117E+02  -3.034576991E+01  -9.529976510E+01   3.287339466E+01
   2.490400000E-02   1.011860377E+02  -3.034673724E+01  -9.529343069E+01   3.287460700E+01
   2.490500000E-02   1.011892588E+02  -3.034770404E+01  -9.528709982E+01   3.287589876E+01
   2.490600000E-02   1.011924776E+02  -3.034866950E+01  -9.528076894E+01   3.287727060E+01
   2.490700000E-02   1.011956965E+02  -3.034963438E+01  -9.527444341E+01   3.287871983E+01
   2.490800000E-02   1.011989153E+02  -3.035059927E+01  -9.526812016E+01   3.288024533E+01
   2.490900000E-02   1.012021288E+02  -3.035156415E+01  -9.526179691E+01   3.288184441E+01
   2.491000000E-02   1.012053447E+02  -3.035252842E+01  -9.525547125E+01   3.288351414E+01
   2.491100000E-02   1.012085629E+02  -3.035349208E+01  -9.524914549E+01   3.288527019E+01
   2.491200000E-02   1.012117760E+02  -3.035445546E+01  -9.524282837E+01   3.288709386E+01
   2.491300000E-02   1.012149819E+02  -3.035541844E+01  -9.523651275E+01   3.288898667E+01
   2.491400000E-02   1.012181908E+02  -3.035638142E+01  -9.523019713E+01   3.289094658E+01
   2.491500000E-02   1.012213966E+02  -3.035734306E+01  -9.522388684E+01   3.289297666E+01
   2.491600000E-02   1.012246002E+02  -3.035830414E+01  -9.521757885E+01   3.289507383E+01
   2.491700000E-02   1.012278038E+02  -3.035926521E+01  -9.521127086E+01   3.289723583E+01
   2.491800000E-02   1.012310074E+02  -3.036022495E+01  -9.520496287E+01   3.289946531E+01
   2.491900000E-02   1.012342151E+02  -3.036118670E+01  -9.519865199E+01   3.290176111E+01
   2.492000000E-02   1.012374123E+02  -3.036214565E+01  -9.519234700E+01   3.290410861E+01
   2.492100000E-02   1.012406103E+02  -3.036310531E+01  -9.518605095E+01   3.290652933E+01
   2.492200000E-02   1.012438070E+02  -3.036406397E+01  -9.517975271E+01   3.290900712E+01
   2.492300000E-02   1.012470030E+02  -3.036502256E+01  -9.517345464E+01   3.291154404E+01
   2.492400000E-02   1.012501989E+02  -3.036598040E+01  -9.516715961E+01   3.291413663E+01
   2.492500000E-02   1.012533895E+02  -3.036693765E+01  -9.516087221E+01   3.291678526E+01
   2.492600000E-02   1.012565779E+02  -3.036789491E+01  -9.515458177E+01   3.291949109E+01
   2.492700000E-02   1.012597757E+02  -3.036885208E+01  -9.514828616E+01   3.292225507E+01
   2.492800000E-02   1.012629627E+02  -3.036980797E+01  -9.514199754E+01   3.292507045E+01
   2.492900000E-02   1.012661488E+02  -3.037076332E+01  -9.513571243E+01   3.292793500E+01
   2.493000000E-02   1.012693319E+02  -3.037171907E+01  -9.512943458E+01   3.293084436E+01
   2.493100000E-02   1.012725198E+02  -3.037267415E+01  -9.512315228E+01   3.293381572E+01
   2.493200000E-02   1.012757008E+02  -3.037362804E+01  -9.511687770E+01   3.293682718E+01
   2.493300000E-02   1.012788815E+02  -3.037458149E+01  -9.511060021E+01   3.293988885E+01
   2.493400000E-02   1.012820663E+02  -3.037553618E+01  -9.510431989E+01   3.294299997E+01
   2.493500000E-02   1.012852434E+02  -3.037649016E+01  -9.509804653E+01   3.294615345E+01
   2.493600000E-02   1.012884165E+02  -3.037744226E+01  -9.509177668E+01   3.294934827E+01
   2.493700000E-02   1.012915949E+02  -3.037839514E+01  -9.508550682E+01   3.295258504E+01
   2.493800000E-02   1.012947702E+02  -3.037934725E+01  -9.507924231E+01   3.295586374E+01
   2.493900000E-02   1.012979380E+02  -3.038029879E+01  -9.507298008E+01   3.295918439E+01
   2.494000000E-02   1.013011134E+02  -3.038124951E+01  -9.506671853E+01   3.296254187E+01
   2.494100000E-02   1.013042774E+02  -3.038219918E+01  -9.506045921E+01   3.296593836E+01
   2.494200000E-02   1.013074514E+02  -3.038314949E+01  -9.505419820E+01   3.296937655E+01
   2.494300000E-02   1.013106209E+02  -3.038409965E+01  -9.504794011E+01   3.297284637E+01
   2.494400000E-02   1.013137810E+02  -3.038504929E+01  -9.504168551E+01   3.297635125E+01
   2.494500000E-02   1.013169441E+02  -3.038599892E+01  -9.503543091E+01   3.297988892E+01
   2.494600000E-02   1.013201096E+02  -3.038694721E+01  -9.502918165E+01   3.298345709E+01
   2.494700000E-02   1.013232697E+02  -3.038789494E+01  -9.502293468E+01   3.298705576E+01
   2.494800000E-02   1.013264275E+02  -3.038884266E+01  -9.501668771E+01   3.299068760E+01
   2.494900000E-02   1.013295853E+02  -3.038978905E+01  -9.501044607E+01   3.299434576E+01
   2.495000000E-02   1.013327431E+02  -3.039073615E+01  -9.500419904E+01   3.299803373E+01
   2.495100000E-02   1.013358984E+02  -3.039168382E+01  -9.499795723E+01   3.300175143E+01
   2.495200000E-02   1.013390570E+02  -3.039263017E+01  -9.499171641E+01   3.300549422E+01
   2.495300000E-02   1.013422094E+02  -3.039357466E+01  -9.498548241E+01   3.300925651E+01
   2.495400000E-02   1.013453596E+02  -3.039451990E+01  -9.497924535E+01   3.301304321E+01
   2.495500000E-02   1.013485098E+02  -3.039546439E+01  -9.497301134E+01   3.301685393E+01
   2.495600000E-02   1.013516600E+02  -3.039640830E+01  -9.496678496E+01   3.302068486E+01
   2.495700000E-02   1.013548048E+02  -3.039735221E+01  -9.496055554E+01   3.302453753E+01
   2.495800000E-02   1.013579568E+02  -3.039829735E+01  -9.495432104E+01   3.302841279E+01
   2.495900000E-02   1.013611034E+02  -3.039924045E+01  -9.494809347E+01   3.303230311E+01
   2.496000000E-02   1.013642423E+02  -3.040018361E+01  -9.494187588E+01   3.303620694E+01
   2.496100000E-02   1.013673835E+02  -3.040112486E+01  -9.493564890E+01   3.304013123E+01
   2.496200000E-02   1.013705235E+02  -3.040206646E+01  -9.492943417E+01   3.304406900E+01
   2.496300000E-02   1.013736660E+02  -3.040300847E+01  -9.492321771E+01   3.304802046E+01
   2.496400000E-02   1.013768032E+02  -3.040394914E+01  -9.491700125E+01   3.305198602E+01
   2.496500000E-02   1.013799423E+02  -3.040489179E+01  -9.491077668E+01   3.305596935E+01
   2.496600000E-02   1.013830789E+02  -3.040583299E+01  -9.490456209E+01   3.305995851E+01
   2.496700000E-02   1.013862139E+02  -3.040677175E+01  -9.489835325E+01   3.306395574E+01
   2.496800000E-02   1.013893434E+02  -3.040771127E+01  -9.489214442E+01   3.306796440E+01
   2.496900000E-02   1.013924761E+02  -3.040865004E+01  -9.488594092E+01   3.307197917E+01
   2.497000000E-02   1.013956080E+02  -3.040959007E+01  -9.487973203E+01   3.307600342E+01
   2.497100000E-02   1.013987338E+02  -3.041052711E+01  -9.487353563E+01   3.308003128E+01
   2.497200000E-02   1.014018603E+02  -3.041146461E+01  -9.486733730E+01   3.308406579E+01
   2.497300000E-02   1.014049916E+02  -3.041240402E+01  -9.486112801E+01   3.308810985E+01
   2.497400000E-02   1.014081154E+02  -3.041334140E+01  -9.485492868E+01   3.309215357E+01
   2.497500000E-02   1.014112404E+02  -3.041427768E+01  -9.484873510E+01   3.309619885E+01
   2.497600000E-02   1.014143623E+02  -3.041521396E+01  -9.484254153E+01   3.310024794E+01
   2.497700000E-02   1.014174820E+02  -3.041615025E+01  -9.483634795E+01   3.310429551E+01
   2.497800000E-02   1.014206017E+02  -3.041708653E+01  -9.483015437E+01   3.310834193E+01
   2.497900000E-02   1.014237213E+02  -3.041802148E+01  -9.482396612E+01   3.311238835E+01
   2.498000000E-02   1.014268410E+02  -3.041895655E+01  -9.481777710E+01   3.311643893E+01
   2.498100000E-02   1.014299581E+02  -3.041989277E+01  -9.481158586E+01   3.312048436E+01
   2.498200000E-02   1.014330785E+02  -3.042082692E+01  -9.480540209E+01   3.312452599E+01
   2.498300000E-02   1.014361929E+02  -3.042176072E+01  -9.479921842E+01   3.312855944E+01
   2.498400000E-02   1.014393049E+02  -3.042269376E+01  -9.479303781E+01   3.313259061E+01
   2.498500000E-02   1.014424170E+02  -3.042362757E+01  -9.478685949E+01   3.313661376E+01
   2.498600000E-02   1.014455237E+02  -3.042456061E+01  -9.478068650E+01   3.314063082E+01
   2.498700000E-02   1.014486334E+02  -3.042549308E+01  -9.477451047E+01   3.314464140E+01
   2.498800000E-02   1.014517401E+02  -3.042642555E+01  -9.476833748E+01   3.314864435E+01
   2.498900000E-02   1.014548486E+02  -3.042735790E+01  -9.476215874E+01   3.315264221E+01
   2.499000000E-02   1.014579587E+02  -3.042828957E+01  -9.475598803E+01   3.315662642E+01
   2.499100000E-02   1.014610596E+02  -3.042921944E+01  -9.474981591E+01   3.316059755E+01
   2.499200000E-02   1.014641636E+02  -3.043015011E+01  -9.474364854E+01   3.316456020E+01
   2.499300000E-02   1.014672680E+02  -3.043108067E+01  -9.473748547E+01   3.316851090E+01
   2.499400000E-02   1.014703671E+02  -3.043201123E+01  -9.473132240E+01   3.317244749E+01
   2.499500000E-02   1.014734692E+02  -3.043294046E+01  -9.472515933E+01   3.317637150E+01
   2.499600000E-02   1.014765723E+02  -3.043387166E+01  -9.471898822E+01   3.318028649E+01
   2.499700000E-02   1.014796708E+02  -3.043480141E+01  -9.471282706E+01   3.318418329E+01
   2.499800000E-02   1.014827676E+02  -3.043573006E+01  -9.470666628E+01   3.318806267E+01
   2.499900000E-02   1.014858644E+02  -3.043665872E+01  -9.470050855E+01   3.319192678E+01
   2.500000000E-02   1.014889515E+02  -3.043758549E+01  -9.469436111E+01   3.319577265E+01
   2.500000037E-02   1.014889526E+02  -3.043758583E+01  -9.469435883E+01   3.319577408E+01




          JOB CONCLUDED

          TOTAL JOB TIME            7.47
