
**** 06/03/13 10:20:21 ********* PSpice 9.2 (Mar 2000) ******** ID# 1 ********

 ** Profile: "SCHEMATIC1-2"  [ G:\44FZ\paralel-schematic1-2.sim ] 


 ****     CIRCUIT DESCRIPTION


******************************************************************************




** Creating circuit file "paralel-schematic1-2.sim.cir" 
** WARNING: THIS AUTOMATICALLY GENERATED FILE MAY BE OVERWRITTEN BY SUBSEQUENT SIMULATIONS

*Libraries: 
* Local Libraries :
* From [PSPICE NETLIST] section of g:\program files\Orcad\PSpice\PSpice.ini file:
.lib "nom.lib" 

*Analysis directives: 
.TRAN 1u 25ms 13ms 1u 
.OPTIONS NOBIAS
.OPTIONS NOMOD
.OPTIONS NOOUTMSG
.OPTIONS ITL4= 100
.OPTIONS NUMDGT= 10
.OPTIONS WIDTH= 132
.PROBE V(*) I(*) W(*) D(*) NOISE(*) 
.INC ".\paralel-SCHEMATIC1.net" 



**** INCLUDING paralel-SCHEMATIC1.net ****
* source PARALEL
R_R2         0 N50597  1MEG  
X_S4    N241303 0 N27236 N241265 SCHEMATIC1_S4 
X_S2    N236610 0 N27236 N235437 SCHEMATIC1_S2 
R_RB1         0 SHIM  3.33333  
R_R6         0 N260882  1MEG  
E_DIFF3         N241303 0 VALUE {V(N257386,N254383)}
R_RB2         0 N235437  4  
R_R8         0 N260240  1MEG  
X_U2         N260882 N254383 Sw_tClose PARAMS: tClose=24m ttran=1u Rclosed=0.01
+  Ropen=1Meg
E_E1         N62053 0 VALUE {
+  if(I(V_V1)<138.9473,(-25.641*log((139.2857-I(V_V1))/139.2857))/-1.204+128.2051,0)
+  }
R_RB3         0 N239113  4  
C_CN         N40356 RN1  0.001  
L_L2         N64666 RN1  5uH  
C_CF         N00729 N27236  0.009  
V_V4         N259871 0   0.7
R_R4         0 N254383  1MEG  
R_RK2         N234987 N64666  0.02630  
R_RCN         0 N40356  0.02171  
V_V3         N50597 0 DC 0.01 AC 1
+PULSE 0 0.8 0 0.0098m 0.0001m 0.01m 0.01m
R_RCF         N00729 0  6.51419e-3  
X_S3    N239167 0 N27236 N239113 SCHEMATIC1_S3 
V_V5         N260240 0   0.7
X_U3         N260009 N260882 Sw_tClose PARAMS: tClose=24m ttran=1u Rclosed=0.01
+  Ropen=1Meg
R_R7         0 N260009  1MEG  
L_L1         N134688 N27236  5uH  
V_V6         N257386 0   0.7
X_S1    N27337 0 N27236 SHIM SCHEMATIC1_S1 
R_RDN         0 N27236  40  
E_DIFF1         N50582 0 VALUE {V(N08877,N27236)}
E_DIFF4         N239167 0 VALUE {V(N260240,N260882)}
V_V2         N254251 0   1
V_V1         N62053 N134650 DC 0 AC 1 0
R_RB4         0 N241265  4  
V_Unom         N08877 0   100
R_R3         0 N254251  1MEG  
E_DIFF5         N236610 0 VALUE {V(N259871,N260009)}
R_RA         0 RN1  10  
R_RK1         N134688 N134650  0.02630  
E_DIFF2         N27337 0 VALUE {V(N50597,N50582)}
R_R5         0 N257386  1MEG  
X_SwStart         N27236 N234987 Sw_tClose PARAMS: tClose=14m ttran=1u
+  Rclosed=1u Ropen=1MEG
X_U1         N254383 N254251 Sw_tClose PARAMS: tClose=24m ttran=1u Rclosed=0.01
+  Ropen=1Meg
R_R1         0 N08877  1MEG  
R_R9         0 N259871  1MEG  
.IC         V(N134650 )=5
.PRINT         TRAN V([N27236]) I(R_RB1) I(R_RK1) I(R_RK2)

.subckt SCHEMATIC1_S4 1 2 3 4  
S_S4         3 4 1 2 _S4
RS_S4         1 2 1G
.MODEL         _S4 VSWITCH Roff=1e4 Ron=1m Voff=-1e-4 Von=1e-4
.ends SCHEMATIC1_S4

.subckt SCHEMATIC1_S2 1 2 3 4  
S_S2         3 4 1 2 _S2
RS_S2         1 2 1G
.MODEL         _S2 VSWITCH Roff=1e4 Ron=0.1m Voff=-1e-4 Von=1e-4
.ends SCHEMATIC1_S2

.subckt SCHEMATIC1_S3 1 2 3 4  
S_S3         3 4 1 2 _S3
RS_S3         1 2 1G
.MODEL         _S3 VSWITCH Roff=1e4 Ron=1m Voff=-1e-4 Von=1e-4
.ends SCHEMATIC1_S3

.subckt SCHEMATIC1_S1 1 2 3 4  
S_S1         3 4 1 2 _S1
RS_S1         1 2 1G
.MODEL         _S1 VSWITCH Roff=1e4 Ron=1m Voff=-1e-4 Von=1e-4
.ends SCHEMATIC1_S1

**** RESUMING paralel-schematic1-2.sim.cir ****
.END

WARNING -- Pulse Period < (Rise Time + Fall Time + Pulse Width) for V_V3
WARNING -- Pulse Period < (Rise Time + Fall Time + Pulse Width) for V_V3
**** 06/03/13 10:20:21 ********* PSpice 9.2 (Mar 2000) ******** ID# 1 ********

 ** Profile: "SCHEMATIC1-2"  [ G:\44FZ\paralel-schematic1-2.sim ] 


 ****     TRANSIENT ANALYSIS               TEMPERATURE =   27.000 DEG C


******************************************************************************



  TIME              V(N27236)         I(R_RB1)          I(R_RK1)          I(R_RK2)          

   1.300000000E-02   9.984607645E+01  -9.981280130E-03  -9.806647556E+01   9.984545502E-05
   1.300100000E-02   9.984817359E+01  -9.981489939E-03  -9.803760070E+01   9.984758581E-05
   1.300200000E-02   9.983615145E+01  -2.173067163E+00  -9.801264037E+01   9.983556573E-05
   1.300300000E-02   9.975512896E+01  -1.486764063E+01  -9.799906096E+01   9.975454050E-05
   1.300400000E-02   9.967346154E+01  -2.746407519E+01  -9.800230833E+01   9.967287030E-05
   1.300500000E-02   9.965686699E+01  -2.988812291E+01  -9.801553322E+01   9.965628247E-05
   1.300600000E-02   9.965594395E+01  -2.988784784E+01  -9.802807138E+01   9.965535854E-05
   1.300700000E-02   9.965501936E+01  -2.988756898E+01  -9.803949567E+01   9.965443225E-05
   1.300800000E-02   9.965408791E+01  -2.988728867E+01  -9.804991549E+01   9.965349473E-05
   1.300900000E-02   9.965314942E+01  -2.988700828E+01  -9.805944311E+01   9.965256203E-05
   1.301000000E-02   9.974900249E+01  -1.499975064E+01  -9.806438707E+01   9.974841035E-05
   1.301100000E-02   9.984825992E+01  -9.981498587E-03  -9.803590687E+01   9.984766620E-05
   1.301200000E-02   9.982323176E+01  -4.164554324E+00  -9.801240153E+01   9.982264581E-05
   1.301300000E-02   9.975512562E+01  -1.485039327E+01  -9.800007286E+01   9.975453825E-05
   1.301400000E-02   9.967348691E+01  -2.745750905E+01  -9.800212104E+01   9.967289664E-05
   1.301500000E-02   9.965716010E+01  -2.984531780E+01  -9.801497253E+01   9.965657167E-05
   1.301600000E-02   9.965596811E+01  -2.988785255E+01  -9.802753023E+01   9.965537978E-05
   1.301700000E-02   9.965503951E+01  -2.988757427E+01  -9.803901146E+01   9.965445052E-05
   1.301800000E-02   9.965410880E+01  -2.988729581E+01  -9.804947619E+01   9.965351927E-05
   1.301900000E-02   9.965317194E+01  -2.988701426E+01  -9.805904213E+01   9.965258217E-05
   1.302000000E-02   9.974939908E+01  -1.494163415E+01  -9.806403598E+01   9.974880605E-05
   1.302100000E-02   9.984827886E+01  -9.981501114E-03  -9.803558713E+01   9.984768884E-05
   1.302200000E-02   9.982322205E+01  -4.169164654E+00  -9.801211155E+01   9.982263808E-05
   1.302300000E-02   9.975509384E+01  -1.485861075E+01  -9.799981633E+01   9.975450646E-05
   1.302400000E-02   9.967353109E+01  -2.745395469E+01  -9.800188400E+01   9.967294083E-05
   1.302500000E-02   9.965717842E+01  -2.984593971E+01  -9.801476558E+01   9.965658912E-05
   1.302600000E-02   9.965598435E+01  -2.988786007E+01  -9.802734793E+01   9.965539525E-05
   1.302700000E-02   9.965506142E+01  -2.988758200E+01  -9.803883037E+01   9.965447143E-05
   1.302800000E-02   9.965412590E+01  -2.988730202E+01  -9.804931401E+01   9.965354160E-05
   1.302900000E-02   9.965318699E+01  -2.988702149E+01  -9.805889797E+01   9.965260379E-05
   1.303000000E-02   9.974934421E+01  -1.495302014E+01  -9.806390092E+01   9.974875394E-05
   1.303100000E-02   9.984829775E+01  -9.981502863E-03  -9.803547238E+01   9.984770954E-05
   1.303200000E-02   9.982324880E+01  -4.168223206E+00  -9.801200429E+01   9.982266450E-05
   1.303300000E-02   9.975508485E+01  -1.486323456E+01  -9.799971166E+01   9.975449747E-05
   1.303400000E-02   9.967349933E+01  -2.746198448E+01  -9.800179372E+01   9.967290906E-05
   1.303500000E-02   9.965719823E+01  -2.984640536E+01  -9.801467522E+01   9.965660805E-05
   1.303600000E-02   9.965600774E+01  -2.988786594E+01  -9.802725730E+01   9.965541758E-05
   1.303700000E-02   9.965507780E+01  -2.988758766E+01  -9.803875530E+01   9.965449304E-05
   1.303800000E-02   9.965414709E+01  -2.988730764E+01  -9.804924174E+01   9.965355707E-05
   1.303900000E-02   9.965321023E+01  -2.988702732E+01  -9.805882440E+01   9.965261869E-05
   1.304000000E-02   9.974929344E+01  -1.496436386E+01  -9.806383451E+01   9.974870212E-05
   1.304100000E-02   9.984832146E+01  -9.981504807E-03  -9.803539774E+01   9.984773218E-05
   1.304200000E-02   9.982324137E+01  -4.172733767E+00  -9.801194014E+01   9.982265166E-05
   1.304300000E-02   9.975510626E+01  -1.486299734E+01  -9.799966042E+01   9.975451671E-05
   1.304400000E-02   9.967349416E+01  -2.746582172E+01  -9.800174859E+01   9.967290388E-05
   1.304500000E-02   9.965720987E+01  -2.984703260E+01  -9.801463469E+01   9.965661910E-05
   1.304600000E-02   9.965602893E+01  -2.988787156E+01  -9.802722264E+01   9.965543777E-05
   1.304700000E-02   9.965510104E+01  -2.988759349E+01  -9.803871287E+01   9.965450922E-05
   1.304800000E-02   9.965416976E+01  -2.988731329E+01  -9.804920593E+01   9.965357741E-05
   1.304900000E-02   9.965323276E+01  -2.988703294E+01  -9.805878993E+01   9.965264016E-05
   1.305000000E-02   9.974969003E+01  -1.490624732E+01  -9.806378480E+01   9.974909782E-05
   1.305100000E-02   9.984833844E+01  -9.981506556E-03  -9.803537453E+01   9.984774560E-05
   1.305200000E-02   9.982326585E+01  -4.171608575E+00  -9.801191375E+01   9.982267593E-05
   1.305300000E-02   9.975509728E+01  -1.486736065E+01  -9.799962671E+01   9.975450772E-05
   1.305400000E-02   9.967351175E+01  -2.746602965E+01  -9.800171321E+01   9.967292148E-05
   1.305500000E-02   9.965723006E+01  -2.984741730E+01  -9.801460316E+01   9.965663842E-05
   1.305600000E-02   9.965604532E+01  -2.988787722E+01  -9.802719627E+01   9.965545339E-05
   1.305700000E-02   9.965511594E+01  -2.988759910E+01  -9.803868676E+01   9.965452941E-05
   1.305800000E-02   9.965418538E+01  -2.988731912E+01  -9.804917150E+01   9.965359959E-05
   1.305900000E-02   9.965324852E+01  -2.988703881E+01  -9.805874801E+01   9.965266249E-05
   1.306000000E-02   9.974918399E+01  -1.498709264E+01  -9.806377037E+01   9.974859091E-05
   1.306100000E-02   9.984835928E+01  -9.981508501E-03  -9.803533327E+01   9.984776824E-05
   1.306200000E-02   9.982325841E+01  -4.175922135E+00  -9.801187478E+01   9.982266817E-05
   1.306300000E-02   9.975511869E+01  -1.486684375E+01  -9.799959835E+01   9.975452404E-05
   1.306400000E-02   9.967347999E+01  -2.747366069E+01  -9.800169428E+01   9.967288971E-05
   1.306500000E-02   9.965724171E+01  -2.984799393E+01  -9.801457923E+01   9.965664948E-05
   1.306600000E-02   9.965606092E+01  -2.988788305E+01  -9.802716735E+01   9.965547429E-05
   1.306700000E-02   9.965513799E+01  -2.988760497E+01  -9.803865775E+01   9.965454574E-05
   1.306800000E-02   9.965420176E+01  -2.988732478E+01  -9.804914465E+01   9.965361393E-05
   1.306900000E-02   9.965326342E+01  -2.988704442E+01  -9.805872745E+01   9.965267668E-05
   1.307000000E-02   9.974958058E+01  -1.492897513E+01  -9.806372829E+01   9.974898660E-05
   1.307100000E-02   9.984837340E+01  -9.981510249E-03  -9.803531770E+01   9.984778166E-05
   1.307200000E-02   9.982325894E+01  -4.178476842E+00  -9.801184187E+01   9.982266849E-05
   1.307300000E-02   9.975508691E+01  -1.487448312E+01  -9.799956997E+01   9.975449225E-05
   1.307400000E-02   9.967352417E+01  -2.746951975E+01  -9.800166588E+01   9.967293390E-05
   1.307500000E-02   9.965699142E+01  -2.988816073E+01  -9.801471914E+01   9.965639865E-05
   1.307600000E-02   9.965606898E+01  -2.988788432E+01  -9.802727514E+01   9.965547527E-05
   1.307700000E-02   9.965513949E+01  -2.988760618E+01  -9.803874945E+01   9.965455131E-05
   1.307800000E-02   9.965420893E+01  -2.988732617E+01  -9.804922517E+01   9.965362137E-05
   1.307900000E-02   9.965327196E+01  -2.988704586E+01  -9.805879532E+01   9.965268416E-05
   1.308000000E-02   9.974951084E+01  -1.494030000E+01  -9.806379157E+01   9.974891668E-05
   1.308100000E-02   9.984838185E+01  -9.981511262E-03  -9.803536322E+01   9.984778975E-05
   1.308200000E-02   9.982327088E+01  -4.177474066E+00  -9.801189563E+01   9.982268032E-05
   1.308300000E-02   9.975513112E+01  -1.486837651E+01  -9.799961486E+01   9.975453647E-05
   1.308400000E-02   9.967349241E+01  -2.747515393E+01  -9.800170799E+01   9.967289959E-05
   1.308500000E-02   9.965699630E+01  -2.988816144E+01  -9.801475144E+01   9.965640464E-05
   1.308600000E-02   9.965607482E+01  -2.988788530E+01  -9.802728546E+01   9.965548220E-05
   1.308700000E-02   9.965514571E+01  -2.988760726E+01  -9.803876054E+01   9.965455248E-05
   1.308800000E-02   9.965421444E+01  -2.988732710E+01  -9.804923788E+01   9.965362068E-05
   1.308900000E-02   9.965327754E+01  -2.988704673E+01  -9.805881114E+01   9.965268353E-05
   1.309000000E-02   9.974944061E+01  -1.495170009E+01  -9.806380910E+01   9.974884628E-05
   1.309100000E-02   9.984839030E+01  -9.981511344E-03  -9.803536011E+01   9.984779512E-05
   1.309200000E-02   9.982325884E+01  -4.180304116E+00  -9.801189481E+01   9.982266818E-05
   1.309300000E-02   9.975509933E+01  -1.487405358E+01  -9.799961929E+01   9.975450468E-05
   1.309400000E-02   9.967348722E+01  -2.747665414E+01  -9.800171626E+01   9.967289440E-05
   1.309500000E-02   9.965700102E+01  -2.988816318E+01  -9.801475549E+01   9.965640900E-05
   1.309600000E-02   9.965607951E+01  -2.988788633E+01  -9.802728667E+01   9.965548653E-05
   1.309700000E-02   9.965514967E+01  -2.988760807E+01  -9.803877300E+01   9.965455609E-05
   1.309800000E-02   9.965421895E+01  -2.988732961E+01  -9.804924191E+01   9.965362483E-05
   1.309900000E-02   9.965328218E+01  -2.988704811E+01  -9.805881056E+01   9.965268782E-05
   1.310000000E-02   9.974937018E+01  -1.496313115E+01  -9.806381137E+01   9.974877568E-05
   1.310100000E-02   9.984838916E+01  -9.981512162E-03  -9.803537505E+01   9.984779671E-05
   1.310200000E-02   9.982327877E+01  -4.177561096E+00  -9.801190657E+01   9.982268811E-05
   1.310300000E-02   9.975509035E+01  -1.487613755E+01  -9.799961838E+01   9.975449569E-05
   1.310400000E-02   9.967350482E+01  -2.747462426E+01  -9.800171407E+01   9.967291200E-05
   1.310500000E-02   9.965700066E+01  -2.988816427E+01  -9.801476065E+01   9.965640864E-05
   1.310600000E-02   9.965607915E+01  -2.988788813E+01  -9.802729149E+01   9.965549209E-05
   1.310700000E-02   9.965515622E+01  -2.988761008E+01  -9.803876265E+01   9.965456371E-05
   1.310800000E-02   9.965422088E+01  -2.988733012E+01  -9.804923491E+01   9.965363261E-05
   1.310900000E-02   9.965328818E+01  -2.988704960E+01  -9.805880639E+01   9.965269489E-05
   1.311000000E-02   9.974930446E+01  -1.497442410E+01  -9.806380599E+01   9.974870960E-05
   1.311100000E-02   9.984839761E+01  -9.981512244E-03  -9.803536431E+01   9.984780480E-05
   1.311200000E-02   9.982326673E+01  -4.180342188E+00  -9.801189812E+01   9.982267597E-05
   1.311300000E-02   9.975511176E+01  -1.487345010E+01  -9.799962054E+01   9.975451711E-05
   1.311400000E-02   9.967347306E+01  -2.748012928E+01  -9.800171040E+01   9.967288024E-05
   1.311500000E-02   9.965700879E+01  -2.988816633E+01  -9.801475347E+01   9.965641641E-05
   1.311600000E-02   9.965608658E+01  -2.988788997E+01  -9.802729415E+01   9.965549325E-05
   1.311700000E-02   9.965515728E+01  -2.988761188E+01  -9.803876704E+01   9.965456335E-05
   1.311800000E-02   9.965422672E+01  -2.988733192E+01  -9.804923272E+01   9.965363225E-05
   1.311900000E-02   9.965328995E+01  -2.988705161E+01  -9.805880150E+01   9.965269524E-05
   1.312000000E-02   9.974968579E+01  -1.491630562E+01  -9.806379443E+01   9.974908710E-05
   1.312100000E-02   9.984839647E+01  -9.981513061E-03  -9.803537163E+01   9.984780367E-05
   1.312200000E-02   9.982326267E+01  -4.181439679E+00  -9.801188809E+01   9.982267191E-05
   1.312300000E-02   9.975507998E+01  -1.487902916E+01  -9.799960970E+01   9.975448532E-05
   1.312400000E-02   9.967351724E+01  -2.747397118E+01  -9.800169994E+01   9.967292442E-05
   1.312500000E-02   9.965701184E+01  -2.988816724E+01  -9.801474740E+01   9.965641947E-05
   1.312600000E-02   9.965609036E+01  -2.988789111E+01  -9.802727552E+01   9.965549703E-05
   1.312700000E-02   9.965516055E+01  -2.988761285E+01  -9.803875798E+01   9.965457251E-05
   1.312800000E-02   9.965422982E+01  -2.988733285E+01  -9.804922894E+01   9.965363674E-05
   1.312900000E-02   9.965329308E+01  -2.988705254E+01  -9.805879447E+01   9.965269837E-05
   1.313000000E-02   9.974916449E+01  -1.499714907E+01  -9.806380288E+01   9.974856929E-05
   1.313100000E-02   9.984840492E+01  -9.981513143E-03  -9.803535325E+01   9.984781176E-05
   1.313200000E-02   9.982327462E+01  -4.180297422E+00  -9.801188616E+01   9.982268375E-05
   1.313300000E-02   9.975512419E+01  -1.487272984E+01  -9.799960654E+01   9.975452954E-05
   1.313400000E-02   9.967348548E+01  -2.747942022E+01  -9.800170122E+01   9.967289266E-05
   1.313500000E-02   9.965701656E+01  -2.988816828E+01  -9.801473619E+01   9.965642383E-05
   1.313600000E-02   9.965609435E+01  -2.988789192E+01  -9.802727701E+01   9.965550067E-05
   1.313700000E-02   9.965516505E+01  -2.988761383E+01  -9.803875006E+01   9.965457076E-05
   1.313800000E-02   9.965423449E+01  -2.988733387E+01  -9.804922210E+01   9.965363967E-05
   1.313900000E-02   9.965329773E+01  -2.988705356E+01  -9.805878624E+01   9.965270265E-05
   1.314000000E-02   9.974954582E+01  -1.493902963E+01  -9.806378369E+01   9.974894679E-05
   1.314100000E-02   9.984840451E+01  -9.981513452E-03  -9.803535379E+01   9.984781135E-05
   1.314200000E-02   9.982327057E+01  -4.181357727E+00  -9.801187614E+01   9.982267970E-05
   1.314300000E-02   9.975509240E+01  -1.487825859E+01  -9.799960104E+01   9.975449775E-05
   1.314400000E-02   9.967352966E+01  -2.747321131E+01  -9.800168809E+01   9.967293684E-05
   1.314500000E-02   9.965701905E+01  -2.988816888E+01  -9.801474136E+01   9.965642347E-05
   1.314600000E-02   9.965609469E+01  -2.988789203E+01  -9.802727246E+01   9.965550101E-05
   1.314700000E-02   9.965517106E+01  -2.988761532E+01  -9.803875249E+01   9.965457648E-05
   1.314800000E-02   9.965423555E+01  -2.988733567E+01  -9.804921990E+01   9.965364658E-05
   1.314900000E-02   9.965330356E+01  -2.988705380E+01  -9.805878227E+01   9.965270956E-05
   1.315000000E-02   9.974947577E+01  -1.495040146E+01  -9.806378214E+01   9.974887657E-05
   1.315100000E-02   9.984841222E+01  -9.981514042E-03  -9.803534982E+01   9.984781598E-05
   1.315200000E-02   9.982328252E+01  -4.180181883E+00  -9.801188184E+01   9.982269154E-05
   1.315300000E-02   9.975508341E+01  -1.488020757E+01  -9.799959479E+01   9.975448876E-05
   1.315400000E-02   9.967349790E+01  -2.747861456E+01  -9.800169204E+01   9.967290508E-05
   1.315500000E-02   9.965702347E+01  -2.988816997E+01  -9.801473889E+01   9.965643039E-05
   1.315600000E-02   9.965610196E+01  -2.988789383E+01  -9.802726965E+01   9.965550792E-05
   1.315700000E-02   9.965517282E+01  -2.988761578E+01  -9.803874072E+01   9.965457818E-05
   1.315800000E-02   9.965424226E+01  -2.988733582E+01  -9.804920670E+01   9.965364708E-05
   1.315900000E-02   9.965330479E+01  -2.988705529E+01  -9.805878287E+01   9.965270936E-05
   1.316000000E-02   9.974940204E+01  -1.496175364E+01  -9.806378058E+01   9.974880647E-05
   1.316100000E-02   9.984841305E+01  -9.981514124E-03  -9.803533145E+01   9.984781953E-05
   1.316200000E-02   9.982326818E+01  -4.182874743E+00  -9.801186576E+01   9.982267721E-05
   1.316300000E-02   9.975510483E+01  -1.487739266E+01  -9.799958932E+01   9.975451018E-05
   1.316400000E-02   9.967349272E+01  -2.747992179E+01  -9.800168506E+01   9.967289990E-05
   1.316500000E-02   9.965702397E+01  -2.988817202E+01  -9.801472693E+01   9.965643089E-05
   1.316600000E-02   9.965610246E+01  -2.988789588E+01  -9.802725532E+01   9.965550842E-05
   1.316700000E-02   9.965517883E+01  -2.988761762E+01  -9.803873552E+01   9.965458390E-05
   1.316800000E-02   9.965424332E+01  -2.988733762E+01  -9.804920308E+01   9.965364808E-05
   1.316900000E-02   9.965330513E+01  -2.988705575E+01  -9.805877178E+01   9.965271562E-05
   1.317000000E-02   9.974978337E+01  -1.490363515E+01  -9.806376139E+01   9.974918762E-05
   1.317100000E-02   9.984841953E+01  -9.981514360E-03  -9.803534163E+01   9.984781840E-05
   1.317200000E-02   9.982329042E+01  -4.180001621E+00  -9.801186988E+01   9.982269714E-05
   1.317300000E-02   9.975509585E+01  -1.487929553E+01  -9.799958613E+01   9.975450120E-05
   1.317400000E-02   9.967351032E+01  -2.747771860E+01  -9.800168287E+01   9.967291277E-05
   1.317500000E-02   9.965703124E+01  -2.988817192E+01  -9.801472924E+01   9.965643325E-05
   1.317600000E-02   9.965610973E+01  -2.988789577E+01  -9.802726014E+01   9.965551398E-05
   1.317700000E-02   9.965518059E+01  -2.988761773E+01  -9.803873137E+01   9.965458560E-05
   1.317800000E-02   9.965424933E+01  -2.988733756E+01  -9.804920529E+01   9.965365380E-05
   1.317900000E-02   9.965331240E+01  -2.988705720E+01  -9.805876924E+01   9.965271662E-05
   1.318000000E-02   9.974926207E+01  -1.498447766E+01  -9.806376984E+01   9.974866615E-05
   1.318100000E-02   9.984842035E+01  -9.981515023E-03  -9.803532325E+01   9.984782649E-05
   1.318200000E-02   9.982327608E+01  -4.182663766E+00  -9.801185914E+01   9.982268499E-05
   1.318300000E-02   9.975511726E+01  -1.487643976E+01  -9.799958295E+01   9.975452261E-05
   1.318400000E-02   9.967347856E+01  -2.748305631E+01  -9.800167920E+01   9.967288100E-05
   1.318500000E-02   9.965703174E+01  -2.988817397E+01  -9.801471729E+01   9.965643830E-05
   1.318600000E-02   9.965610953E+01  -2.988789607E+01  -9.802725517E+01   9.965551514E-05
   1.318700000E-02   9.965518023E+01  -2.988761917E+01  -9.803872813E+01   9.965458524E-05
   1.318800000E-02   9.965424967E+01  -2.988733957E+01  -9.804919388E+01   9.965365414E-05
   1.318900000E-02   9.965331291E+01  -2.988705770E+01  -9.805876272E+01   9.965271713E-05
   1.319000000E-02   9.974964340E+01  -1.492635916E+01  -9.806375828E+01   9.974904365E-05
   1.319100000E-02   9.984842208E+01  -9.981514909E-03  -9.803533534E+01   9.984782535E-05
   1.319200000E-02   9.982327202E+01  -4.183647108E+00  -9.801185141E+01   9.982268094E-05
   1.319300000E-02   9.975508547E+01  -1.488185773E+01  -9.799957745E+01   9.975449082E-05
   1.319400000E-02   9.967352273E+01  -2.747673996E+01  -9.800167369E+01   9.967292519E-05
   1.319500000E-02   9.965703423E+01  -2.988817387E+01  -9.801471960E+01   9.965643794E-05
   1.319600000E-02   9.965611607E+01  -2.988789772E+01  -9.802725062E+01   9.965551548E-05
   1.319700000E-02   9.965518836E+01  -2.988761968E+01  -9.803872203E+01   9.965459166E-05
   1.319800000E-02   9.965425710E+01  -2.988733951E+01  -9.804919610E+01   9.965366121E-05
   1.319900000E-02   9.965332017E+01  -2.988705915E+01  -9.805876018E+01   9.965272404E-05
   1.320000000E-02   9.974957373E+01  -1.493767083E+01  -9.806375290E+01   9.974897382E-05
   1.320100000E-02   9.984842766E+01  -9.981515341E-03  -9.803531982E+01   9.984783071E-05
   1.320200000E-02   9.982328397E+01  -4.182395761E+00  -9.801185482E+01   9.982269278E-05
   1.320300000E-02   9.975512968E+01  -1.487540514E+01  -9.799957657E+01   9.975453503E-05
   1.320400000E-02   9.967349097E+01  -2.748203951E+01  -9.800167002E+01   9.967289342E-05
   1.320500000E-02   9.965703897E+01  -2.988817457E+01  -9.801471537E+01   9.965644062E-05
   1.320600000E-02   9.965611714E+01  -2.988789762E+01  -9.802724781E+01   9.965552104E-05
   1.320700000E-02   9.965518800E+01  -2.988761957E+01  -9.803871879E+01   9.965459266E-05
   1.320800000E-02   9.965425744E+01  -2.988734116E+01  -9.804918468E+01   9.965366156E-05
   1.320900000E-02   9.965332068E+01  -2.988705965E+01  -9.805875366E+01   9.965272455E-05
   1.321000000E-02   9.974949961E+01  -1.494908318E+01  -9.806375517E+01   9.974890334E-05
   1.321100000E-02   9.984842848E+01  -9.981516005E-03  -9.803530622E+01   9.984783426E-05
   1.321200000E-02   9.982326963E+01  -4.185017835E+00  -9.801184102E+01   9.982267844E-05
   1.321300000E-02   9.975509790E+01  -1.488078495E+01  -9.799957107E+01   9.975450325E-05
   1.321400000E-02   9.967353515E+01  -2.747568503E+01  -9.800166451E+01   9.967293761E-05
   1.321500000E-02   9.965704256E+01  -2.988817566E+01  -9.801470634E+01   9.965644150E-05
   1.321600000E-02   9.965612038E+01  -2.988789859E+01  -9.802724397E+01   9.965552426E-05
   1.321700000E-02   9.965519111E+01  -2.988762050E+01  -9.803871318E+01   9.965459576E-05
   1.321800000E-02   9.965426054E+01  -2.988734209E+01  -9.804918090E+01   9.965366466E-05
   1.321900000E-02   9.965332381E+01  -2.988706060E+01  -9.805874663E+01   9.965272768E-05
   1.322000000E-02   9.974942926E+01  -1.496050103E+01  -9.806374981E+01   9.974882918E-05
   1.322100000E-02   9.984843497E+01  -9.981515891E-03  -9.803531640E+01   9.984783312E-05
   1.322200000E-02   9.982329187E+01  -4.182073766E+00  -9.801184515E+01   9.982269330E-05
   1.322300000E-02   9.975508891E+01  -1.488259083E+01  -9.799956254E+01   9.975449207E-05
   1.322400000E-02   9.967350339E+01  -2.748094834E+01  -9.800166084E+01   9.967290584E-05
   1.322500000E-02   9.965704220E+01  -2.988817673E+01  -9.801470678E+01   9.965644842E-05
   1.322600000E-02   9.965612072E+01  -2.988790060E+01  -9.802723184E+01   9.965552598E-05
   1.322700000E-02   9.965519709E+01  -2.988762234E+01  -9.803871412E+01   9.965459556E-05
   1.322800000E-02   9.965426163E+01  -2.988734234E+01  -9.804918491E+01   9.965366430E-05
   1.322900000E-02   9.965332344E+01  -2.988706203E+01  -9.805875029E+01   9.965272731E-05
   1.323000000E-02   9.974935965E+01  -1.497180720E+01  -9.806374825E+01   9.974875938E-05
   1.323100000E-02   9.984843579E+01  -9.981516322E-03  -9.803530279E+01   9.984783394E-05
   1.323200000E-02   9.982327753E+01  -4.184670399E+00  -9.801183670E+01   9.982267896E-05
   1.323300000E-02   9.975511033E+01  -1.487963884E+01  -9.799956470E+01   9.975451349E-05
   1.323400000E-02   9.967347163E+01  -2.748619380E+01  -9.800166480E+01   9.967287408E-05
   1.323500000E-02   9.965704474E+01  -2.988817663E+01  -9.801470904E+01   9.965644806E-05
   1.323600000E-02   9.965612036E+01  -2.988790049E+01  -9.802723665E+01   9.965552562E-05
   1.323700000E-02   9.965519742E+01  -2.988762245E+01  -9.803870383E+01   9.965460179E-05
   1.323800000E-02   9.965426831E+01  -2.988734250E+01  -9.804917171E+01   9.965366619E-05
   1.323900000E-02   9.965333087E+01  -2.988706197E+01  -9.805874466E+01   9.965272711E-05
   1.324000000E-02   9.974973715E+01  -1.491368774E+01  -9.806373287E+01   9.974914052E-05
   1.324100000E-02   9.984843465E+01  -9.981516790E-03  -9.803531011E+01   9.984784008E-05
   1.324200000E-02   9.982327347E+01  -4.185590057E+00  -9.801182668E+01   9.982267708E-05
   1.324300000E-02   9.975507854E+01  -1.488496643E+01  -9.799955386E+01   9.975447661E-05
   1.324400000E-02   9.967351581E+01  -2.747978784E+01  -9.800165167E+01   9.967291826E-05
   1.324500000E-02   9.965704997E+01  -2.988817868E+01  -9.801469713E+01   9.965644856E-05
   1.324600000E-02   9.965612849E+01  -2.988790100E+01  -9.802722850E+01   9.965552612E-05
   1.324700000E-02   9.965519868E+01  -2.988762393E+01  -9.803870622E+01   9.965460160E-05
   1.324800000E-02   9.965426795E+01  -2.988734429E+01  -9.804917571E+01   9.965367172E-05
   1.324900000E-02   9.965333121E+01  -2.988706244E+01  -9.805874123E+01   9.965273473E-05
   1.325000000E-02   9.974921585E+01  -1.499453027E+01  -9.806374895E+01   9.974861543E-05
   1.325100000E-02   9.984843833E+01  -9.981516872E-03  -9.803529936E+01   9.984784090E-05
   1.325200000E-02   9.982328313E+01  -4.184276333E+00  -9.801183237E+01   9.982268675E-05
   1.325300000E-02   9.975512275E+01  -1.487842879E+01  -9.799955832E+01   9.975452083E-05
   1.325400000E-02   9.967348405E+01  -2.748500278E+01  -9.800165562E+01   9.967288650E-05
   1.325500000E-02   9.965704961E+01  -2.988817857E+01  -9.801469939E+01   9.965645097E-05
   1.325600000E-02   9.965612813E+01  -2.988790244E+01  -9.802722714E+01   9.965553165E-05
   1.325700000E-02   9.965519902E+01  -2.988762439E+01  -9.803870066E+01   9.965460332E-05
   1.325800000E-02   9.965426846E+01  -2.988734445E+01  -9.804916397E+01   9.965367222E-05
   1.325900000E-02   9.965333101E+01  -2.988706392E+01  -9.805873560E+01   9.965273453E-05
   1.326000000E-02   9.974959719E+01  -1.493641176E+01  -9.806372976E+01   9.974899657E-05
   1.326100000E-02   9.984844269E+01  -9.981516831E-03  -9.803529990E+01   9.984784049E-05
   1.326200000E-02   9.982328137E+01  -4.185174140E+00  -9.801182770E+01   9.982268269E-05
   1.326300000E-02   9.975509097E+01  -1.488372467E+01  -9.799955512E+01   9.975448904E-05
   1.326400000E-02   9.967352823E+01  -2.747856755E+01  -9.800165012E+01   9.967292813E-05
   1.326500000E-02   9.965705011E+01  -2.988817872E+01  -9.801469221E+01   9.965645597E-05
   1.326600000E-02   9.965612793E+01  -2.988790238E+01  -9.802722977E+01   9.965553284E-05
   1.326700000E-02   9.965520484E+01  -2.988762429E+01  -9.803869887E+01   9.965460296E-05
   1.326800000E-02   9.965426955E+01  -2.988734434E+01  -9.804916652E+01   9.965367186E-05
   1.326900000E-02   9.965333136E+01  -2.988706402E+01  -9.805873217E+01   9.965273487E-05
   1.327000000E-02   9.974952341E+01  -1.494777039E+01  -9.806373202E+01   9.974892279E-05
   1.327100000E-02   9.984844278E+01  -9.981517189E-03  -9.803529593E+01   9.984784058E-05
   1.327200000E-02   9.982329104E+01  -4.183840336E+00  -9.801182805E+01   9.982269236E-05
   1.327300000E-02   9.975508197E+01  -1.488545454E+01  -9.799954658E+01   9.975448004E-05
   1.327400000E-02   9.967349646E+01  -2.748375388E+01  -9.800164645E+01   9.967289637E-05
   1.327500000E-02   9.965705738E+01  -2.988818052E+01  -9.801469264E+01   9.965645562E-05
   1.327600000E-02   9.965613590E+01  -2.988790439E+01  -9.802721763E+01   9.965553318E-05
   1.327700000E-02   9.965520679E+01  -2.988762634E+01  -9.803869132E+01   9.965460935E-05
   1.327800000E-02   9.965427553E+01  -2.988734618E+01  -9.804916252E+01   9.965367305E-05
   1.327900000E-02   9.965333862E+01  -2.988706428E+01  -9.805872820E+01   9.965273451E-05
   1.328000000E-02   9.974945341E+01  -1.495913483E+01  -9.806372665E+01   9.974885261E-05
   1.328100000E-02   9.984844646E+01  -9.981517853E-03  -9.803528041E+01   9.984784867E-05
   1.328200000E-02   9.982327668E+01  -4.186384959E+00  -9.801181731E+01   9.982268019E-05
   1.328300000E-02   9.975510339E+01  -1.488242688E+01  -9.799954874E+01   9.975450147E-05
   1.328400000E-02   9.967349128E+01  -2.748485418E+01  -9.800164709E+01   9.967289119E-05
   1.328500000E-02   9.965705735E+01  -2.988818051E+01  -9.801469021E+01   9.965645558E-05
   1.328600000E-02   9.965613554E+01  -2.988790428E+01  -9.802722244E+01   9.965553282E-05
   1.328700000E-02   9.965520643E+01  -2.988762624E+01  -9.803868953E+01   9.965460899E-05
   1.328800000E-02   9.965427587E+01  -2.988734629E+01  -9.804915732E+01   9.965367928E-05
   1.328900000E-02   9.965333913E+01  -2.988706597E+01  -9.805872311E+01   9.965274229E-05
   1.329000000E-02   9.974983093E+01  -1.490101632E+01  -9.806371509E+01   9.974923011E-05
   1.329100000E-02   9.984845009E+01  -9.981517739E-03  -9.803529250E+01   9.984784754E-05
   1.329200000E-02   9.982329894E+01  -4.183365440E+00  -9.801182373E+01   9.982270015E-05
   1.329300000E-02   9.975509441E+01  -1.488412677E+01  -9.799954021E+01   9.975449248E-05
   1.329400000E-02   9.967350888E+01  -2.748245157E+01  -9.800164223E+01   9.967290879E-05
   1.329500000E-02   9.965705752E+01  -2.988818057E+01  -9.801468772E+01   9.965645576E-05
   1.329600000E-02   9.965613604E+01  -2.988790443E+01  -9.802721575E+01   9.965553921E-05
   1.329700000E-02   9.965520623E+01  -2.988762618E+01  -9.803869192E+01   9.965461018E-05
   1.329800000E-02   9.965427550E+01  -2.988734618E+01  -9.804916133E+01   9.965367891E-05
   1.329900000E-02   9.965333876E+01  -2.988706586E+01  -9.805872677E+01   9.965274192E-05
   1.330000000E-02   9.974930963E+01  -1.498185885E+01  -9.806372737E+01   9.974870502E-05
   1.330100000E-02   9.984845091E+01  -9.981517821E-03  -9.803527699E+01   9.984784835E-05
   1.330200000E-02   9.982328458E+01  -4.185891898E+00  -9.801181298E+01   9.982268580E-05
   1.330300000E-02   9.975511582E+01  -1.488107568E+01  -9.799954236E+01   9.975451390E-05
   1.330400000E-02   9.967347712E+01  -2.748759907E+01  -9.800164123E+01   9.967287702E-05
   1.330500000E-02   9.965705717E+01  -2.988818118E+01  -9.801468815E+01   9.965646267E-05
   1.330600000E-02   9.965613568E+01  -2.988790432E+01  -9.802721293E+01   9.965554023E-05
   1.330700000E-02   9.965521275E+01  -2.988762628E+01  -9.803868636E+01   9.965461052E-05
   1.330800000E-02   9.965427746E+01  -2.988734787E+01  -9.804914958E+01   9.965367942E-05
   1.330900000E-02   9.965333856E+01  -2.988706617E+01  -9.805872114E+01   9.965274173E-05
   1.331000000E-02   9.974968714E+01  -1.492373939E+01  -9.806371198E+01   9.974908617E-05
   1.331100000E-02   9.984844977E+01  -9.981517707E-03  -9.803529194E+01   9.984784722E-05
   1.331200000E-02   9.982328052E+01  -4.186743647E+00  -9.801181059E+01   9.982268174E-05
   1.331300000E-02   9.975508404E+01  -1.488630613E+01  -9.799953916E+01   9.975448211E-05
   1.331400000E-02   9.967352130E+01  -2.748109901E+01  -9.800163572E+01   9.967292121E-05
   1.331500000E-02   9.965706529E+01  -2.988818251E+01  -9.801467807E+01   9.965646317E-05
   1.331600000E-02   9.965614311E+01  -2.988790617E+01  -9.802721556E+01   9.965554004E-05
   1.331700000E-02   9.965521384E+01  -2.988762808E+01  -9.803868457E+01   9.965461015E-05
   1.331800000E-02   9.965428327E+01  -2.988734813E+01  -9.804915213E+01   9.965367906E-05
   1.331900000E-02   9.965334654E+01  -2.988706781E+01  -9.805871771E+01   9.965274207E-05
   1.332000000E-02   9.974961756E+01  -1.493503879E+01  -9.806371423E+01   9.974901277E-05
   1.332100000E-02   9.984845345E+01  -9.981518138E-03  -9.803527833E+01   9.984785258E-05
   1.332200000E-02   9.982329020E+01  -4.185364621E+00  -9.801181095E+01   9.982269360E-05
   1.332300000E-02   9.975512825E+01  -1.487967652E+01  -9.799953599E+01   9.975452632E-05
   1.332400000E-02   9.967348954E+01  -2.748622428E+01  -9.800163968E+01   9.967288944E-05
   1.332500000E-02   9.965706184E+01  -2.988818219E+01  -9.801468223E+01   9.965645972E-05
   1.332600000E-02   9.965614001E+01  -2.988790524E+01  -9.802721130E+01   9.965554285E-05
   1.332700000E-02   9.965521708E+01  -2.988762719E+01  -9.803868084E+01   9.965461447E-05
   1.332800000E-02   9.965428174E+01  -2.988734879E+01  -9.804914672E+01   9.965368337E-05
   1.332900000E-02   9.965334355E+01  -2.988706728E+01  -9.805871568E+01   9.965274636E-05
   1.333000000E-02   9.974954336E+01  -1.494646341E+01  -9.806371269E+01   9.974894221E-05
   1.333100000E-02   9.984845904E+01  -9.981518802E-03  -9.803526281E+01   9.984785612E-05
   1.333200000E-02   9.982327813E+01  -4.187868102E+00  -9.801180021E+01   9.982267925E-05
   1.333300000E-02   9.975509646E+01  -1.488488732E+01  -9.799953278E+01   9.975449454E-05
   1.333400000E-02   9.967353372E+01  -2.747970383E+01  -9.800162655E+01   9.967293362E-05
   1.333500000E-02   9.965706487E+01  -2.988818344E+01  -9.801467966E+01   9.965646717E-05
   1.333600000E-02   9.965614051E+01  -2.988790730E+01  -9.802720461E+01   9.965554471E-05
   1.333700000E-02   9.965521688E+01  -2.988762904E+01  -9.803868327E+01   9.965461427E-05
   1.333800000E-02   9.965428137E+01  -2.988734903E+01  -9.804915072E+01   9.965368301E-05
   1.333900000E-02   9.965334939E+01  -2.988706872E+01  -9.805871314E+01   9.965274599E-05
   1.334000000E-02   9.974947309E+01  -1.495786900E+01  -9.806371114E+01   9.974886812E-05
   1.334100000E-02   9.984845790E+01  -9.981518688E-03  -9.803527490E+01   9.984785499E-05
   1.334200000E-02   9.982329810E+01  -4.184808487E+00  -9.801181196E+01   9.982269921E-05
   1.334300000E-02   9.975508747E+01  -1.488653262E+01  -9.799953188E+01   9.975448554E-05
   1.334400000E-02   9.967350196E+01  -2.748480878E+01  -9.800163050E+01   9.967290186E-05
   1.334500000E-02   9.965706929E+01  -2.988818333E+01  -9.801468004E+01   9.965646682E-05
   1.334600000E-02   9.965614778E+01  -2.988790719E+01  -9.802720800E+01   9.965554435E-05
   1.334700000E-02   9.965521864E+01  -2.988762914E+01  -9.803867912E+01   9.965461461E-05
   1.334800000E-02   9.965428808E+01  -2.988734918E+01  -9.804914515E+01   9.965368351E-05
   1.334900000E-02   9.965335061E+01  -2.988706866E+01  -9.805871516E+01   9.965274579E-05
   1.335000000E-02   9.974939958E+01  -1.496918648E+01  -9.806371339E+01   9.974879461E-05
   1.335100000E-02   9.984845872E+01  -9.981518770E-03  -9.803526416E+01   9.984785580E-05
   1.335200000E-02   9.982328374E+01  -4.187297438E+00  -9.801179817E+01   9.982268486E-05
   1.335300000E-02   9.975510889E+01  -1.488342551E+01  -9.799953175E+01   9.975450696E-05
   1.335400000E-02   9.967347020E+01  -2.748990352E+01  -9.800163446E+01   9.967287010E-05
   1.335500000E-02   9.965706979E+01  -2.988818348E+01  -9.801467001E+01   9.965646731E-05
   1.335600000E-02   9.965614758E+01  -2.988790713E+01  -9.802721067E+01   9.965554415E-05
   1.335700000E-02   9.965521828E+01  -2.988762903E+01  -9.803867731E+01   9.965461425E-05
   1.335800000E-02   9.965428772E+01  -2.988734908E+01  -9.804914153E+01   9.965368315E-05
   1.335900000E-02   9.965335096E+01  -2.988706876E+01  -9.805871028E+01   9.965274613E-05
   1.336000000E-02   9.974977708E+01  -1.491106701E+01  -9.806369801E+01   9.974917211E-05
   1.336100000E-02   9.984845757E+01  -9.981518656E-03  -9.803527434E+01   9.984785467E-05
   1.336200000E-02   9.982327968E+01  -4.188113434E+00  -9.801179349E+01   9.982268079E-05
   1.336300000E-02   9.975507711E+01  -1.488860564E+01  -9.799952320E+01   9.975447518E-05
   1.336400000E-02   9.967351437E+01  -2.748335447E+01  -9.800162628E+01   9.967290955E-05
   1.336500000E-02   9.965706943E+01  -2.988818409E+01  -9.801467518E+01   9.965646695E-05
   1.336600000E-02   9.965614792E+01  -2.988790723E+01  -9.802719991E+01   9.965554449E-05
   1.336700000E-02   9.965521879E+01  -2.988762918E+01  -9.803866978E+01   9.965462066E-05
   1.336800000E-02   9.965428752E+01  -2.988735057E+01  -9.804914375E+01   9.965368430E-05
   1.336900000E-02   9.965335059E+01  -2.988706901E+01  -9.805870774E+01   9.965274577E-05
   1.337000000E-02   9.974925578E+01  -1.499191051E+01  -9.806371029E+01   9.974865065E-05
   1.337100000E-02   9.984846126E+01  -9.981518738E-03  -9.803526359E+01   9.984785549E-05
   1.337200000E-02   9.982328936E+01  -4.186698927E+00  -9.801179919E+01   9.982269047E-05
   1.337300000E-02   9.975512132E+01  -1.488192645E+01  -9.799952766E+01   9.975451939E-05
   1.337400000E-02   9.967348261E+01  -2.748843013E+01  -9.800162528E+01   9.967287779E-05
   1.337500000E-02   9.965706993E+01  -2.988818543E+01  -9.801466800E+01   9.965646745E-05
   1.337600000E-02   9.965614772E+01  -2.988790908E+01  -9.802720258E+01   9.965554429E-05
   1.337700000E-02   9.965522463E+01  -2.988763098E+01  -9.803867417E+01   9.965462030E-05
   1.337800000E-02   9.965428929E+01  -2.988735103E+01  -9.804913996E+01   9.965368465E-05
   1.337900000E-02   9.965335110E+01  -2.988706916E+01  -9.805870265E+01   9.965275219E-05
   1.338000000E-02   9.974963331E+01  -1.493379103E+01  -9.806369872E+01   9.974902816E-05
   1.338100000E-02   9.984846012E+01  -9.981518974E-03  -9.803527568E+01   9.984785435E-05
   1.338200000E-02   9.982328530E+01  -4.187501074E+00  -9.801179146E+01   9.982268641E-05
   1.338300000E-02   9.975508953E+01  -1.488708765E+01  -9.799952217E+01   9.975448760E-05
   1.338400000E-02   9.967352679E+01  -2.748186201E+01  -9.800161978E+01   9.967292197E-05
   1.338500000E-02   9.965706957E+01  -2.988818532E+01  -9.801466838E+01   9.965646709E-05
   1.338600000E-02   9.965614806E+01  -2.988790918E+01  -9.802719660E+01   9.965554463E-05
   1.338700000E-02   9.965522513E+01  -2.988763113E+01  -9.803866806E+01   9.965462080E-05
   1.338800000E-02   9.965428909E+01  -2.988735097E+01  -9.804913597E+01   9.965369036E-05
   1.338900000E-02   9.965335694E+01  -2.988707060E+01  -9.805870488E+01   9.965275319E-05
   1.339000000E-02   9.974956342E+01  -1.494513740E+01  -9.806370098E+01   9.974895446E-05
   1.339100000E-02   9.984846570E+01  -9.981519056E-03  -9.803526016E+01   9.984785971E-05
   1.339200000E-02   9.982329726E+01  -4.186074924E+00  -9.801179486E+01   9.982269826E-05
   1.339300000E-02   9.975508054E+01  -1.488868774E+01  -9.799952126E+01   9.975447861E-05
   1.339400000E-02   9.967349503E+01  -2.748692051E+01  -9.800162374E+01   9.967289021E-05
   1.339500000E-02   9.965707239E+01  -2.988818531E+01  -9.801466608E+01   9.965646706E-05
   1.339600000E-02   9.965615391E+01  -2.988790907E+01  -9.802720142E+01   9.965555019E-05
   1.339700000E-02   9.965522620E+01  -2.988763102E+01  -9.803866625E+01   9.965462181E-05
   1.339800000E-02   9.965429563E+01  -2.988735107E+01  -9.804913077E+01   9.965369071E-05
   1.339900000E-02   9.965335816E+01  -2.988707054E+01  -9.805870691E+01   9.965275298E-05
   1.340000000E-02   9.974948952E+01  -1.495651410E+01  -9.806369561E+01   9.974888421E-05
   1.340100000E-02   9.984846652E+01  -9.981519720E-03  -9.803524941E+01   9.984786326E-05
   1.340200000E-02   9.982328290E+01  -4.188532269E+00  -9.801178641E+01   9.982268391E-05
   1.340300000E-02   9.975510196E+01  -1.488553519E+01  -9.799951808E+01   9.975450003E-05
   1.340400000E-02   9.967348985E+01  -2.748790039E+01  -9.800162438E+01   9.967288502E-05
   1.340500000E-02   9.965707734E+01  -2.988818537E+01  -9.801466351E+01   9.965646996E-05
   1.340600000E-02   9.965615583E+01  -2.988790922E+01  -9.802718852E+01   9.965555068E-05
   1.340700000E-02   9.965522599E+01  -2.988763096E+01  -9.803866725E+01   9.965462160E-05
   1.340800000E-02   9.965429527E+01  -2.988735096E+01  -9.804913477E+01   9.965369034E-05
   1.340900000E-02   9.965335851E+01  -2.988707065E+01  -9.805869725E+01   9.965275333E-05
   1.341000000E-02   9.974986703E+01  -1.489839558E+01  -9.806368405E+01   9.974926171E-05
   1.341100000E-02   9.984846538E+01  -9.981519605E-03  -9.803526437E+01   9.984786212E-05
   1.341200000E-02   9.982330287E+01  -4.185427112E+00  -9.801179816E+01   9.982269879E-05
   1.341300000E-02   9.975509298E+01  -1.488711645E+01  -9.799951717E+01   9.975448886E-05
   1.341400000E-02   9.967350745E+01  -2.748538037E+01  -9.800161952E+01   9.967290263E-05
   1.341500000E-02   9.965707698E+01  -2.988818597E+01  -9.801466868E+01   9.965647415E-05
   1.341600000E-02   9.965615547E+01  -2.988790912E+01  -9.802719333E+01   9.965555169E-05
   1.341700000E-02   9.965522634E+01  -2.988763107E+01  -9.803866311E+01   9.965462195E-05
   1.341800000E-02   9.965429577E+01  -2.988735266E+01  -9.804912920E+01   9.965369085E-05
   1.341900000E-02   9.965335830E+01  -2.988707094E+01  -9.805869927E+01   9.965275313E-05
   1.342000000E-02   9.974934193E+01  -1.497923813E+01  -9.806370013E+01   9.974873662E-05
   1.342100000E-02   9.984846620E+01  -9.981519687E-03  -9.803525076E+01   9.984786294E-05
   1.342200000E-02   9.982328851E+01  -4.187874227E+00  -9.801178437E+01   9.982268443E-05
   1.342300000E-02   9.975511439E+01  -1.488395192E+01  -9.799951704E+01   9.975450518E-05
   1.342400000E-02   9.967347569E+01  -2.749041597E+01  -9.800161852E+01   9.967287086E-05
   1.342500000E-02   9.965707748E+01  -2.988818732E+01  -9.801465672E+01   9.965647465E-05
   1.342600000E-02   9.965615527E+01  -2.988791096E+01  -9.802719457E+01   9.965555149E-05
   1.342700000E-02   9.965522597E+01  -2.988763287E+01  -9.803866749E+01   9.965462158E-05
   1.342800000E-02   9.965429541E+01  -2.988735291E+01  -9.804913321E+01   9.965369049E-05
   1.342900000E-02   9.965335865E+01  -2.988707105E+01  -9.805869582E+01   9.965275347E-05
   1.343000000E-02   9.974972326E+01  -1.492111865E+01  -9.806368857E+01   9.974911411E-05
   1.343100000E-02   9.984846793E+01  -9.981519573E-03  -9.803526570E+01   9.984786181E-05
   1.343200000E-02   9.982328445E+01  -4.188648927E+00  -9.801178198E+01   9.982268037E-05
   1.343300000E-02   9.975508260E+01  -1.488907306E+01  -9.799951384E+01   9.975447340E-05
   1.343400000E-02   9.967351987E+01  -2.748380971E+01  -9.800161301E+01   9.967291505E-05
   1.343500000E-02   9.965707712E+01  -2.988818721E+01  -9.801466188E+01   9.965647429E-05
   1.343600000E-02   9.965615561E+01  -2.988791107E+01  -9.802719002E+01   9.965555183E-05
   1.343700000E-02   9.965522648E+01  -2.988763302E+01  -9.803866139E+01   9.965462209E-05
   1.343800000E-02   9.965429521E+01  -2.988735285E+01  -9.804912922E+01   9.965369028E-05
   1.343900000E-02   9.965335828E+01  -2.988707249E+01  -9.805869805E+01   9.965275311E-05
   1.344000000E-02   9.974919813E+01  -1.500196120E+01  -9.806370085E+01   9.974858902E-05
   1.344100000E-02   9.984846874E+01  -9.981519655E-03  -9.803525019E+01   9.984786262E-05
   1.344200000E-02   9.982329413E+01  -4.187195052E+00  -9.801178539E+01   9.982269004E-05
   1.344300000E-02   9.975512681E+01  -1.488233829E+01  -9.799951829E+01   9.975451761E-05
   1.344400000E-02   9.967348811E+01  -2.748883129E+01  -9.800161697E+01   9.967288073E-05
   1.344500000E-02   9.965707709E+01  -2.988818720E+01  -9.801465958E+01   9.965647425E-05
   1.344600000E-02   9.965615525E+01  -2.988791096E+01  -9.802719484E+01   9.965555147E-05
   1.344700000E-02   9.965523232E+01  -2.988763291E+01  -9.803865957E+01   9.965462173E-05
   1.344800000E-02   9.965429698E+01  -2.988735295E+01  -9.804912401E+01   9.965369063E-05
   1.344900000E-02   9.965335879E+01  -2.988707264E+01  -9.805868676E+01   9.965275362E-05
   1.345000000E-02   9.974957566E+01  -1.494384173E+01  -9.806368546E+01   9.974896652E-05
   1.345100000E-02   9.984847433E+01  -9.981519737E-03  -9.803523944E+01   9.984786344E-05
   1.345200000E-02   9.982328206E+01  -4.189627380E+00  -9.801177694E+01   9.982267568E-05
   1.345300000E-02   9.975509503E+01  -1.488744607E+01  -9.799950975E+01   9.975448582E-05
   1.345400000E-02   9.967353228E+01  -2.748221169E+01  -9.800161147E+01   9.967292491E-05
   1.345500000E-02   9.965707726E+01  -2.988818725E+01  -9.801465701E+01   9.965647443E-05
   1.345600000E-02   9.965615575E+01  -2.988791111E+01  -9.802718194E+01   9.965555197E-05
   1.345700000E-02   9.965523212E+01  -2.988763285E+01  -9.803866058E+01   9.965462744E-05
   1.345800000E-02   9.965429662E+01  -2.988735284E+01  -9.804912802E+01   9.965369162E-05
   1.345900000E-02   9.965336463E+01  -2.988707253E+01  -9.805869042E+01   9.965275325E-05
   1.346000000E-02   9.974950547E+01  -1.495523506E+01  -9.806368773E+01   9.974889616E-05
   1.346100000E-02   9.984847319E+01  -9.981519973E-03  -9.803525153E+01   9.984786230E-05
   1.346200000E-02   9.982330203E+01  -4.186497095E+00  -9.801178869E+01   9.982269565E-05
   1.346300000E-02   9.975508604E+01  -1.488899506E+01  -9.799950884E+01   9.975447683E-05
   1.346400000E-02   9.967350052E+01  -2.748722182E+01  -9.800161275E+01   9.967289315E-05
   1.346500000E-02   9.965707975E+01  -2.988818714E+01  -9.801466217E+01   9.965647407E-05
   1.346600000E-02   9.965616160E+01  -2.988791100E+01  -9.802718675E+01   9.965555161E-05
   1.346700000E-02   9.965523389E+01  -2.988763295E+01  -9.803865643E+01   9.965462778E-05
   1.346800000E-02   9.965430332E+01  -2.988735299E+01  -9.804912245E+01   9.965369213E-05
   1.346900000E-02   9.965336585E+01  -2.988707247E+01  -9.805869244E+01   9.965275305E-05
   1.347000000E-02   9.974943188E+01  -1.496656480E+01  -9.806368998E+01   9.974882256E-05
   1.347100000E-02   9.984847401E+01  -9.981520054E-03  -9.803524078E+01   9.984786312E-05
   1.347200000E-02   9.982328767E+01  -4.188920838E+00  -9.801177490E+01   9.982268130E-05
   1.347300000E-02   9.975510746E+01  -1.488579400E+01  -9.799950871E+01   9.975449825E-05
   1.347400000E-02   9.967349535E+01  -2.748815054E+01  -9.800161340E+01   9.967288798E-05
   1.347500000E-02   9.965708503E+01  -2.988818801E+01  -9.801465499E+01   9.965647457E-05
   1.347600000E-02   9.965616352E+01  -2.988791115E+01  -9.802718006E+01   9.965555211E-05
   1.347700000E-02   9.965523369E+01  -2.988763289E+01  -9.803865886E+01   9.965462758E-05
   1.347800000E-02   9.965430296E+01  -2.988735444E+01  -9.804912645E+01   9.965369177E-05
   1.347900000E-02   9.965336620E+01  -2.988707293E+01  -9.805868898E+01   9.965275931E-05
   1.348000000E-02   9.974980938E+01  -1.490844627E+01  -9.806367842E+01   9.974920008E-05
   1.348100000E-02   9.984847287E+01  -9.981519941E-03  -9.803525573E+01   9.984786198E-05
   1.348200000E-02   9.982328361E+01  -4.189673741E+00  -9.801177251E+01   9.982267723E-05
   1.348300000E-02   9.975507567E+01  -1.489088419E+01  -9.799950551E+01   9.975446646E-05
   1.348400000E-02   9.967351294E+01  -2.748558565E+01  -9.800160625E+01   9.967290557E-05
   1.348500000E-02   9.965708468E+01  -2.988818790E+01  -9.801465537E+01   9.965647421E-05
   1.348600000E-02   9.965616317E+01  -2.988791104E+01  -9.802718344E+01   9.965555175E-05
   1.348700000E-02   9.965523403E+01  -2.988763299E+01  -9.803865472E+01   9.965462792E-05
   1.348800000E-02   9.965430276E+01  -2.988735438E+01  -9.804912246E+01   9.965369156E-05
   1.348900000E-02   9.965336583E+01  -2.988707282E+01  -9.805869122E+01   9.965275895E-05
   1.349000000E-02   9.974928428E+01  -1.498928883E+01  -9.806369070E+01   9.974867497E-05
   1.349100000E-02   9.984847369E+01  -9.981520605E-03  -9.803524022E+01   9.984786280E-05
   1.349200000E-02   9.982329329E+01  -4.188197187E+00  -9.801177592E+01   9.982268691E-05
   1.349300000E-02   9.975511988E+01  -1.488411862E+01  -9.799950997E+01   9.975451068E-05
   1.349400000E-02   9.967348118E+01  -2.749057861E+01  -9.800161020E+01   9.967287381E-05
   1.349500000E-02   9.965708517E+01  -2.988818924E+01  -9.801464820E+01   9.965647471E-05
   1.349600000E-02   9.965616297E+01  -2.988791289E+01  -9.802718611E+01   9.965555155E-05
   1.349700000E-02   9.965523367E+01  -2.988763479E+01  -9.803865290E+01   9.965462756E-05
   1.349800000E-02   9.965430310E+01  -2.988735484E+01  -9.804911725E+01   9.965369782E-05
   1.349900000E-02   9.965336634E+01  -2.988707297E+01  -9.805868612E+01   9.965276081E-05
   1.350000000E-02   9.974966179E+01  -1.493116935E+01  -9.806367531E+01   9.974905248E-05
   1.350100000E-02   9.984847255E+01  -9.981520490E-03  -9.803525517E+01   9.984786621E-05
   1.350200000E-02   9.982328923E+01  -4.188941575E+00  -9.801177353E+01   9.982268503E-05
   1.350300000E-02   9.975508810E+01  -1.488919750E+01  -9.799950676E+01   9.975447889E-05
   1.350400000E-02   9.967352536E+01  -2.748393041E+01  -9.800160470E+01   9.967291799E-05
   1.350500000E-02   9.965708482E+01  -2.988818913E+01  -9.801465050E+01   9.965647435E-05
   1.350600000E-02   9.965616331E+01  -2.988791299E+01  -9.802718156E+01   9.965555189E-05
   1.350700000E-02   9.965523417E+01  -2.988763494E+01  -9.803864680E+01   9.965462806E-05
   1.350800000E-02   9.965430290E+01  -2.988735478E+01  -9.804911947E+01   9.965369762E-05
   1.350900000E-02   9.965336598E+01  -2.988707441E+01  -9.805868358E+01   9.965276045E-05
   1.351000000E-02   9.974959199E+01  -1.494250346E+01  -9.806367757E+01   9.974897886E-05
   1.351100000E-02   9.984847337E+01  -9.981520573E-03  -9.803524442E+01   9.984786703E-05
   1.351200000E-02   9.982329890E+01  -4.187458774E+00  -9.801177922E+01   9.982269471E-05
   1.351300000E-02   9.975513231E+01  -1.488242225E+01  -9.799950588E+01   9.975452311E-05
   1.351400000E-02   9.967349360E+01  -2.748891192E+01  -9.800160866E+01   9.967288623E-05
   1.351500000E-02   9.965708478E+01  -2.988818912E+01  -9.801465106E+01   9.965647432E-05
   1.351600000E-02   9.965616295E+01  -2.988791288E+01  -9.802718017E+01   9.965555153E-05
   1.351700000E-02   9.965523381E+01  -2.988763483E+01  -9.803864976E+01   9.965462770E-05
   1.351800000E-02   9.965430325E+01  -2.988735488E+01  -9.804911569E+01   9.965369797E-05
   1.351900000E-02   9.965336577E+01  -2.988707435E+01  -9.805868561E+01   9.965276024E-05
   1.352000000E-02   9.974951801E+01  -1.495389242E+01  -9.806367983E+01   9.974890488E-05
   1.352100000E-02   9.984847705E+01  -9.981520655E-03  -9.803523081E+01   9.984786784E-05
   1.352200000E-02   9.982328454E+01  -4.189863419E+00  -9.801177077E+01   9.982268035E-05
   1.352300000E-02   9.975510053E+01  -1.488749131E+01  -9.799950267E+01   9.975449132E-05
   1.352400000E-02   9.967348841E+01  -2.748981591E+01  -9.800160930E+01   9.967288104E-05
   1.352500000E-02   9.965708495E+01  -2.988818918E+01  -9.801464849E+01   9.965647449E-05
   1.352600000E-02   9.965616345E+01  -2.988791303E+01  -9.802717348E+01   9.965555794E-05
   1.352700000E-02   9.965523981E+01  -2.988763477E+01  -9.803865219E+01   9.965462886E-05
   1.352800000E-02   9.965430431E+01  -2.988735477E+01  -9.804911969E+01   9.965369760E-05
   1.352900000E-02   9.965336612E+01  -2.988707446E+01  -9.805868215E+01   9.965276059E-05
   1.353000000E-02   9.974944370E+01  -1.496533271E+01  -9.806368211E+01   9.974883422E-05
   1.353100000E-02   9.984847591E+01  -9.981520540E-03  -9.803524576E+01   9.984786944E-05
   1.353200000E-02   9.982330452E+01  -4.186705943E+00  -9.801177719E+01   9.982270032E-05
   1.353300000E-02   9.975509154E+01  -1.488900002E+01  -9.799949948E+01   9.975448233E-05
   1.353400000E-02   9.967350601E+01  -2.748722550E+01  -9.800160444E+01   9.967289864E-05
   1.353500000E-02   9.965708460E+01  -2.988818907E+01  -9.801465365E+01   9.965647414E-05
   1.353600000E-02   9.965616309E+01  -2.988791293E+01  -9.802717829E+01   9.965555759E-05
   1.353700000E-02   9.965524015E+01  -2.988763488E+01  -9.803864804E+01   9.965462921E-05
   1.353800000E-02   9.965430482E+01  -2.988735492E+01  -9.804911412E+01   9.965369811E-05
   1.353900000E-02   9.965336592E+01  -2.988707440E+01  -9.805868418E+01   9.965276039E-05
   1.354000000E-02   9.974937041E+01  -1.497661550E+01  -9.806368435E+01   9.974876093E-05
   1.354100000E-02   9.984848150E+01  -9.981520623E-03  -9.803523501E+01   9.984787025E-05
   1.354200000E-02   9.982329244E+01  -4.189104315E+00  -9.801176873E+01   9.982268596E-05
   1.354300000E-02   9.975511295E+01  -1.488576472E+01  -9.799950164E+01   9.975450375E-05
   1.354400000E-02   9.967347425E+01  -2.749219365E+01  -9.800160840E+01   9.967286688E-05
   1.354500000E-02   9.965708509E+01  -2.988818922E+01  -9.801464647E+01   9.965647463E-05
   1.354600000E-02   9.965616289E+01  -2.988791287E+01  -9.802718096E+01   9.965555739E-05
   1.354700000E-02   9.965523979E+01  -2.988763477E+01  -9.803865243E+01   9.965462884E-05
   1.354800000E-02   9.965430445E+01  -2.988735481E+01  -9.804911813E+01   9.965369775E-05
   1.354900000E-02   9.965336626E+01  -2.988707450E+01  -9.805868072E+01   9.965276073E-05
   1.355000000E-02   9.974974793E+01  -1.491849601E+01  -9.806367279E+01   9.974913843E-05
   1.355100000E-02   9.984848036E+01  -9.981520508E-03  -9.803524519E+01   9.984786912E-05
   1.355200000E-02   9.982328838E+01  -4.189832224E+00  -9.801176405E+01   9.982268190E-05
   1.355300000E-02   9.975508117E+01  -1.489082028E+01  -9.799949843E+01   9.975447196E-05
   1.355400000E-02   9.967351843E+01  -2.748552133E+01  -9.800160289E+01   9.967290634E-05
   1.355500000E-02   9.965708474E+01  -2.988818911E+01  -9.801465163E+01   9.965647699E-05
   1.355600000E-02   9.965616323E+01  -2.988791297E+01  -9.802717641E+01   9.965555773E-05
   1.355700000E-02   9.965524029E+01  -2.988763492E+01  -9.803864633E+01   9.965462935E-05
   1.355800000E-02   9.965430425E+01  -2.988735630E+01  -9.804911414E+01   9.965369754E-05
   1.355900000E-02   9.965337210E+01  -2.988707475E+01  -9.805868296E+01   9.965276037E-05
   1.356000000E-02   9.974922663E+01  -1.499933953E+01  -9.806368507E+01   9.974861334E-05
   1.356100000E-02   9.984848118E+01  -9.981520590E-03  -9.803523444E+01   9.984786993E-05
   1.356200000E-02   9.982329806E+01  -4.188332799E+00  -9.801176975E+01   9.982269158E-05
   1.356300000E-02   9.975512538E+01  -1.488402081E+01  -9.799950289E+01   9.975451618E-05
   1.356400000E-02   9.967348667E+01  -2.749048119E+01  -9.800160685E+01   9.967287457E-05
   1.356500000E-02   9.965708755E+01  -2.988818981E+01  -9.801464740E+01   9.965647696E-05
   1.356600000E-02   9.965616907E+01  -2.988791286E+01  -9.802717980E+01   9.965555737E-05
   1.356700000E-02   9.965524136E+01  -2.988763481E+01  -9.803865072E+01   9.965462899E-05
   1.356800000E-02   9.965431080E+01  -2.988735640E+01  -9.804911036E+01   9.965369789E-05
   1.356900000E-02   9.965337403E+01  -2.988707490E+01  -9.805867786E+01   9.965276088E-05
   1.357000000E-02   9.974960414E+01  -1.494122004E+01  -9.806367350E+01   9.974899084E-05
   1.357100000E-02   9.984848200E+01  -9.981520673E-03  -9.803522369E+01   9.984787075E-05
   1.357200000E-02   9.982328370E+01  -4.190722632E+00  -9.801176130E+01   9.982267722E-05
   1.357300000E-02   9.975509359E+01  -1.488906874E+01  -9.799949969E+01   9.975448439E-05
   1.357400000E-02   9.967353085E+01  -2.748380058E+01  -9.800159639E+01   9.967291876E-05
   1.357500000E-02   9.965708773E+01  -2.988818987E+01  -9.801464483E+01   9.965647714E-05
   1.357600000E-02   9.965616957E+01  -2.988791301E+01  -9.802717310E+01   9.965555787E-05
   1.357700000E-02   9.965524116E+01  -2.988763475E+01  -9.803864694E+01   9.965462878E-05
   1.357800000E-02   9.965431043E+01  -2.988735630E+01  -9.804911294E+01   9.965369752E-05
   1.357900000E-02   9.965337367E+01  -2.988707479E+01  -9.805868153E+01   9.965276051E-05
   1.358000000E-02   9.974953022E+01  -1.495260111E+01  -9.806367195E+01   9.974891692E-05
   1.358100000E-02   9.984848086E+01  -9.981520558E-03  -9.803523865E+01   9.984786962E-05
   1.358200000E-02   9.982330368E+01  -4.187550214E+00  -9.801177305E+01   9.982269719E-05
   1.358300000E-02   9.975508460E+01  -1.489055881E+01  -9.799949878E+01   9.975447540E-05
   1.358400000E-02   9.967349909E+01  -2.748875280E+01  -9.800160034E+01   9.967288699E-05
   1.358500000E-02   9.965709215E+01  -2.988819095E+01  -9.801464999E+01   9.965647677E-05
   1.358600000E-02   9.965617064E+01  -2.988791326E+01  -9.802717792E+01   9.965555751E-05
   1.358700000E-02   9.965524150E+01  -2.988763640E+01  -9.803864280E+01   9.965462913E-05
   1.358800000E-02   9.965431094E+01  -2.988735680E+01  -9.804910737E+01   9.965369803E-05
   1.358900000E-02   9.965337347E+01  -2.988707473E+01  -9.805867735E+01   9.965276031E-05
   1.359000000E-02   9.974945655E+01  -1.496394312E+01  -9.806367420E+01   9.974884325E-05
   1.359100000E-02   9.984848168E+01  -9.981520989E-03  -9.803522504E+01   9.984787043E-05
   1.359200000E-02   9.982328931E+01  -4.189934428E+00  -9.801176460E+01   9.982267774E-05
   1.359300000E-02   9.975510602E+01  -1.488730166E+01  -9.799950094E+01   9.975449463E-05
   1.359400000E-02   9.967349391E+01  -2.748962852E+01  -9.800160099E+01   9.967288181E-05
   1.359500000E-02   9.965709265E+01  -2.988819110E+01  -9.801464282E+01   9.965648183E-05
   1.359600000E-02   9.965617114E+01  -2.988791496E+01  -9.802717122E+01   9.965555937E-05
   1.359700000E-02   9.965524130E+01  -2.988763670E+01  -9.803864523E+01   9.965462893E-05
   1.359800000E-02   9.965431058E+01  -2.988735670E+01  -9.804911137E+01   9.965369767E-05
   1.359900000E-02   9.965337381E+01  -2.988707483E+01  -9.805867389E+01   9.965276065E-05
   1.360000000E-02   9.974983405E+01  -1.490582363E+01  -9.806366264E+01   9.974922075E-05
   1.360100000E-02   9.984848054E+01  -9.981520876E-03  -9.803523999E+01   9.984786930E-05
   1.360200000E-02   9.982330929E+01  -4.186756899E+00  -9.801177635E+01   9.982269772E-05
   1.360300000E-02   9.975509704E+01  -1.488878244E+01  -9.799949469E+01   9.975448565E-05
   1.360400000E-02   9.967351151E+01  -2.748701107E+01  -9.800159880E+01   9.967289941E-05
   1.360500000E-02   9.965709229E+01  -2.988819100E+01  -9.801464513E+01   9.965648147E-05
   1.360600000E-02   9.965617078E+01  -2.988791485E+01  -9.802716983E+01   9.965555901E-05
   1.360700000E-02   9.965524164E+01  -2.988763680E+01  -9.803863966E+01   9.965462927E-05
   1.360800000E-02   9.965431037E+01  -2.988735663E+01  -9.804911359E+01   9.965369747E-05
   1.360900000E-02   9.965337345E+01  -2.988707627E+01  -9.805867755E+01   9.965276029E-05
   1.361000000E-02   9.974930895E+01  -1.498666620E+01  -9.806367872E+01   9.974869566E-05
   1.361100000E-02   9.984848136E+01  -9.981520957E-03  -9.803522924E+01   9.984787011E-05
   1.361200000E-02   9.982329493E+01  -4.189136493E+00  -9.801176791E+01   9.982268335E-05
   1.361300000E-02   9.975511845E+01  -1.488552109E+01  -9.799949685E+01   9.975450197E-05
   1.361400000E-02   9.967347975E+01  -2.749195251E+01  -9.800160275E+01   9.967286764E-05
   1.361500000E-02   9.965709278E+01  -2.988819114E+01  -9.801463794E+01   9.965648197E-05
   1.361600000E-02   9.965617058E+01  -2.988791479E+01  -9.802717249E+01   9.965555881E-05
   1.361700000E-02   9.965524128E+01  -2.988763669E+01  -9.803864404E+01   9.965462891E-05
   1.361800000E-02   9.965431072E+01  -2.988735674E+01  -9.804910981E+01   9.965369781E-05
   1.361900000E-02   9.965337395E+01  -2.988707643E+01  -9.805867246E+01   9.965276080E-05
   1.362000000E-02   9.974968646E+01  -1.492854671E+01  -9.806366716E+01   9.974907316E-05
   1.362100000E-02   9.984848022E+01  -9.981520844E-03  -9.803524419E+01   9.984786898E-05
   1.362200000E-02   9.982329087E+01  -4.189846063E+00  -9.801176018E+01   9.982267929E-05
   1.362300000E-02   9.975508666E+01  -1.489055023E+01  -9.799949136E+01   9.975447018E-05
   1.362400000E-02   9.967352392E+01  -2.748525474E+01  -9.800159725E+01   9.967291183E-05
   1.362500000E-02   9.965709243E+01  -2.988819104E+01  -9.801464311E+01   9.965648161E-05
   1.362600000E-02   9.965617092E+01  -2.988791489E+01  -9.802716795E+01   9.965555915E-05
   1.362700000E-02   9.965524178E+01  -2.988763685E+01  -9.803863794E+01   9.965462941E-05
   1.362800000E-02   9.965431052E+01  -2.988735668E+01  -9.804911202E+01   9.965369761E-05
   1.362900000E-02   9.965337359E+01  -2.988707632E+01  -9.805867612E+01   9.965276043E-05
   1.363000000E-02   9.974961292E+01  -1.493986856E+01  -9.806366941E+01   9.974899962E-05
   1.363100000E-02   9.984848104E+01  -9.981521508E-03  -9.803523344E+01   9.984786979E-05
   1.363200000E-02   9.982330054E+01  -4.188329167E+00  -9.801176587E+01   9.982268897E-05
   1.363300000E-02   9.975513087E+01  -1.488372717E+01  -9.799949581E+01   9.975451440E-05
   1.363400000E-02   9.967349216E+01  -2.749019046E+01  -9.800159854E+01   9.967287752E-05
   1.363500000E-02   9.965709239E+01  -2.988819103E+01  -9.801464366E+01   9.965648158E-05
   1.363600000E-02   9.965617056E+01  -2.988791479E+01  -9.802717276E+01   9.965555879E-05
   1.363700000E-02   9.965524142E+01  -2.988763674E+01  -9.803864233E+01   9.965462905E-05
   1.363800000E-02   9.965431086E+01  -2.988735678E+01  -9.804910824E+01   9.965369795E-05
   1.363900000E-02   9.965337339E+01  -2.988707626E+01  -9.805867815E+01   9.965276023E-05
   1.364000000E-02   9.974954268E+01  -1.495126979E+01  -9.806367168E+01   9.974892556E-05
   1.364100000E-02   9.984848186E+01  -9.981521590E-03  -9.803521792E+01   9.984787061E-05
   1.364200000E-02   9.982328618E+01  -4.190702523E+00  -9.801175513E+01   9.982267461E-05
   1.364300000E-02   9.975509909E+01  -1.488875059E+01  -9.799949261E+01   9.975448261E-05
   1.364400000E-02   9.967348697E+01  -2.749105223E+01  -9.800159918E+01   9.967287233E-05
   1.364500000E-02   9.965709257E+01  -2.988819108E+01  -9.801464109E+01   9.965648175E-05
   1.364600000E-02   9.965617106E+01  -2.988791494E+01  -9.802716607E+01   9.965555929E-05
   1.364700000E-02   9.965524122E+01  -2.988763668E+01  -9.803864476E+01   9.965462885E-05
   1.364800000E-02   9.965431050E+01  -2.988735667E+01  -9.804911225E+01   9.965369759E-05
   1.364900000E-02   9.965337373E+01  -2.988707636E+01  -9.805867469E+01   9.965276057E-05
   1.365000000E-02   9.974946845E+01  -1.496269782E+01  -9.806367014E+01   9.974885134E-05
   1.365100000E-02   9.984848358E+01  -9.981521475E-03  -9.803523288E+01   9.984786947E-05
   1.365200000E-02   9.982330616E+01  -4.187513790E+00  -9.801176688E+01   9.982269458E-05
   1.365300000E-02   9.975509010E+01  -1.489021696E+01  -9.799949171E+01   9.975447362E-05
   1.365400000E-02   9.967350458E+01  -2.748841754E+01  -9.800159699E+01   9.967288993E-05
   1.365500000E-02   9.965709221E+01  -2.988819097E+01  -9.801464625E+01   9.965648140E-05
   1.365600000E-02   9.965617070E+01  -2.988791483E+01  -9.802717088E+01   9.965555893E-05
   1.365700000E-02   9.965524156E+01  -2.988763678E+01  -9.803864061E+01   9.965462919E-05
   1.365800000E-02   9.965431100E+01  -2.988735682E+01  -9.804910667E+01   9.965369809E-05
   1.365900000E-02   9.965337353E+01  -2.988707630E+01  -9.805867671E+01   9.965276037E-05
   1.366000000E-02   9.974939508E+01  -1.497399286E+01  -9.806367239E+01   9.974877797E-05
   1.366100000E-02   9.984848440E+01  -9.981521558E-03  -9.803522213E+01   9.984787029E-05
   1.366200000E-02   9.982329180E+01  -4.189882848E+00  -9.801175843E+01   9.982268022E-05
   1.366300000E-02   9.975511152E+01  -1.488693935E+01  -9.799949386E+01   9.975449504E-05
   1.366400000E-02   9.967347282E+01  -2.749334497E+01  -9.800160095E+01   9.967285817E-05
   1.366500000E-02   9.965709271E+01  -2.988819112E+01  -9.801463907E+01   9.965648189E-05
   1.366600000E-02   9.965617050E+01  -2.988791477E+01  -9.802717354E+01   9.965555873E-05
   1.366700000E-02   9.965524120E+01  -2.988763667E+01  -9.803864500E+01   9.965462883E-05
   1.366800000E-02   9.965431064E+01  -2.988735671E+01  -9.804910448E+01   9.965369773E-05
   1.366900000E-02   9.965337387E+01  -2.988707640E+01  -9.805867183E+01   9.965276072E-05
   1.367000000E-02   9.974977260E+01  -1.491587338E+01  -9.806366082E+01   9.974915547E-05
   1.367100000E-02   9.984848326E+01  -9.981521443E-03  -9.803523708E+01   9.984786916E-05
   1.367200000E-02   9.982328773E+01  -4.190582920E+00  -9.801175604E+01   9.982267616E-05
   1.367300000E-02   9.975507973E+01  -1.489195619E+01  -9.799949066E+01   9.975446325E-05
   1.367400000E-02   9.967351700E+01  -2.748663385E+01  -9.800159544E+01   9.967290235E-05
   1.367500000E-02   9.965709235E+01  -2.988819101E+01  -9.801464423E+01   9.965648154E-05
   1.367600000E-02   9.965617084E+01  -2.988791487E+01  -9.802716900E+01   9.965555907E-05
   1.367700000E-02   9.965524791E+01  -2.988763682E+01  -9.803863890E+01   9.965462933E-05
   1.367800000E-02   9.965431186E+01  -2.988735665E+01  -9.804910669E+01   9.965369753E-05
   1.367900000E-02   9.965337351E+01  -2.988707629E+01  -9.805867549E+01   9.965276035E-05
   1.368000000E-02   9.974924748E+01  -1.499671594E+01  -9.806367309E+01   9.974863038E-05
   1.368100000E-02   9.984848408E+01  -9.981521525E-03  -9.803522633E+01   9.984786997E-05
   1.368200000E-02   9.982329741E+01  -4.189056126E+00  -9.801176174E+01   9.982268584E-05
   1.368300000E-02   9.975512394E+01  -1.488511844E+01  -9.799949512E+01   9.975450747E-05
   1.368400000E-02   9.967348524E+01  -2.749155622E+01  -9.800159940E+01   9.967287059E-05
   1.368500000E-02   9.965709285E+01  -2.988819116E+01  -9.801463228E+01   9.965648203E-05
   1.368600000E-02   9.965617064E+01  -2.988791481E+01  -9.802717024E+01   9.965555887E-05
   1.368700000E-02   9.965524755E+01  -2.988763671E+01  -9.803864329E+01   9.965462897E-05
   1.368800000E-02   9.965431221E+01  -2.988735676E+01  -9.804910291E+01   9.965369787E-05
   1.368900000E-02   9.965337402E+01  -2.988707644E+01  -9.805867040E+01   9.965276086E-05
   1.369000000E-02   9.974962500E+01  -1.493859741E+01  -9.806366153E+01   9.974900788E-05
   1.369100000E-02   9.984848367E+01  -9.981521485E-03  -9.803523164E+01   9.984786957E-05
   1.369200000E-02   9.982329335E+01  -4.189751683E+00  -9.801175935E+01   9.982268178E-05
   1.369300000E-02   9.975509216E+01  -1.489012970E+01  -9.799949191E+01   9.975447568E-05
   1.369400000E-02   9.967352942E+01  -2.748484062E+01  -9.800159389E+01   9.967291477E-05
   1.369500000E-02   9.965709249E+01  -2.988819106E+01  -9.801463744E+01   9.965648168E-05
   1.369600000E-02   9.965617098E+01  -2.988791491E+01  -9.802716569E+01   9.965555921E-05
   1.369700000E-02   9.965524735E+01  -2.988763665E+01  -9.803863951E+01   9.965462877E-05
   1.369800000E-02   9.965431184E+01  -2.988735820E+01  -9.804910549E+01   9.965369751E-05
   1.369900000E-02   9.965337365E+01  -2.988707669E+01  -9.805866786E+01   9.965276049E-05
   1.370000000E-02   9.974955115E+01  -1.494996622E+01  -9.806366379E+01   9.974893404E-05
   1.370100000E-02   9.984848852E+01  -9.981521493E-03  -9.803523053E+01   9.984786965E-05
   1.370200000E-02   9.982330532E+01  -4.188222362E+00  -9.801176504E+01   9.982269145E-05
   1.370300000E-02   9.975508317E+01  -1.489158402E+01  -9.799949101E+01   9.975446668E-05
   1.370400000E-02   9.967349766E+01  -2.748975850E+01  -9.800159289E+01   9.967288301E-05
   1.370500000E-02   9.965709213E+01  -2.988819166E+01  -9.801464260E+01   9.965648132E-05
   1.370600000E-02   9.965617062E+01  -2.988791481E+01  -9.802717050E+01   9.965555885E-05
   1.370700000E-02   9.965524769E+01  -2.988763676E+01  -9.803863537E+01   9.965462911E-05
   1.370800000E-02   9.965431235E+01  -2.988735835E+01  -9.804909992E+01   9.965369801E-05
   1.370900000E-02   9.965337345E+01  -2.988707663E+01  -9.805866988E+01   9.965276029E-05
   1.371000000E-02   9.974947740E+01  -1.496132048E+01  -9.806366605E+01   9.974886029E-05
   1.371100000E-02   9.984848935E+01  -9.981521575E-03  -9.803521692E+01   9.984787047E-05
   1.371200000E-02   9.982329095E+01  -4.190583526E+00  -9.801175659E+01   9.982267709E-05
   1.371300000E-02   9.975510459E+01  -1.488829396E+01  -9.799949316E+01   9.975448811E-05
   1.371400000E-02   9.967349248E+01  -2.749060029E+01  -9.800159354E+01   9.967287783E-05
   1.371500000E-02   9.965709263E+01  -2.988819181E+01  -9.801463542E+01   9.965648182E-05
   1.371600000E-02   9.965617112E+01  -2.988791496E+01  -9.802716380E+01   9.965555935E-05
   1.371700000E-02   9.965524749E+01  -2.988763670E+01  -9.803863779E+01   9.965462891E-05
   1.371800000E-02   9.965431198E+01  -2.988735824E+01  -9.804910392E+01   9.965369765E-05
   1.371900000E-02   9.965337379E+01  -2.988707673E+01  -9.805866643E+01   9.965276064E-05
   1.372000000E-02   9.974985492E+01  -1.490320099E+01  -9.806365449E+01   9.974923779E-05
   1.372100000E-02   9.984848820E+01  -9.981521461E-03  -9.803523187E+01   9.984786933E-05
   1.372200000E-02   9.982331094E+01  -4.187382562E+00  -9.801176834E+01   9.982269707E-05
   1.372300000E-02   9.975509560E+01  -1.488974237E+01  -9.799949226E+01   9.975447912E-05
   1.372400000E-02   9.967351007E+01  -2.748795192E+01  -9.800159134E+01   9.967289543E-05
   1.372500000E-02   9.965709227E+01  -2.988819170E+01  -9.801464058E+01   9.965648146E-05
   1.372600000E-02   9.965617076E+01  -2.988791485E+01  -9.802716862E+01   9.965555899E-05
   1.372700000E-02   9.965524783E+01  -2.988763680E+01  -9.803863365E+01   9.965462925E-05
   1.372800000E-02   9.965431178E+01  -2.988735818E+01  -9.804910614E+01   9.965369745E-05
   1.372900000E-02   9.965337343E+01  -2.988707662E+01  -9.805867009E+01   9.965276027E-05
   1.373000000E-02   9.974933362E+01  -1.498404356E+01  -9.806367057E+01   9.974871270E-05
   1.373100000E-02   9.984848902E+01  -9.981521543E-03  -9.803522113E+01   9.984787015E-05
   1.373200000E-02   9.982329657E+01  -4.189740752E+00  -9.801175989E+01   9.982268271E-05
   1.373300000E-02   9.975511701E+01  -1.488645016E+01  -9.799949442E+01   9.975450054E-05
   1.373400000E-02   9.967347831E+01  -2.749286284E+01  -9.800159530E+01   9.967286366E-05
   1.373500000E-02   9.965709563E+01  -2.988819185E+01  -9.801463340E+01   9.965648195E-05
   1.373600000E-02   9.965617056E+01  -2.988791479E+01  -9.802717129E+01   9.965555879E-05
   1.373700000E-02   9.965524747E+01  -2.988763669E+01  -9.803863804E+01   9.965462889E-05
   1.373800000E-02   9.965431213E+01  -2.988735828E+01  -9.804910236E+01   9.965369779E-05
   1.373900000E-02   9.965338014E+01  -2.988707678E+01  -9.805866500E+01   9.965276078E-05
   1.374000000E-02   9.974971113E+01  -1.492592407E+01  -9.806365901E+01   9.974909020E-05
   1.374100000E-02   9.984848788E+01  -9.981521429E-03  -9.803523607E+01   9.984786901E-05
   1.374200000E-02   9.982329251E+01  -4.190429471E+00  -9.801175750E+01   9.982267864E-05
   1.374300000E-02   9.975508523E+01  -1.489145025E+01  -9.799948587E+01   9.975446875E-05
   1.374400000E-02   9.967352249E+01  -2.748613770E+01  -9.800158980E+01   9.967290312E-05
   1.374500000E-02   9.965709526E+01  -2.988819294E+01  -9.801463856E+01   9.965648160E-05
   1.374600000E-02   9.965617090E+01  -2.988791525E+01  -9.802716674E+01   9.965555913E-05
   1.374700000E-02   9.965524797E+01  -2.988763839E+01  -9.803863194E+01   9.965462939E-05
   1.374800000E-02   9.965431193E+01  -2.988735858E+01  -9.804910457E+01   9.965369759E-05
   1.374900000E-02   9.965337978E+01  -2.988707667E+01  -9.805866866E+01   9.965276041E-05
   1.375000000E-02   9.974963767E+01  -1.493723366E+01  -9.806366126E+01   9.974901674E-05
   1.375100000E-02   9.984848870E+01  -9.981521511E-03  -9.803522533E+01   9.984786983E-05
   1.375200000E-02   9.982330219E+01  -4.188892611E+00  -9.801175786E+01   9.982268832E-05
   1.375300000E-02   9.975512944E+01  -1.488459873E+01  -9.799948804E+01   9.975451296E-05
   1.375400000E-02   9.967349073E+01  -2.749104414E+01  -9.800159375E+01   9.967287135E-05
   1.375500000E-02   9.965709522E+01  -2.988819293E+01  -9.801463626E+01   9.965648156E-05
   1.375600000E-02   9.965617675E+01  -2.988791669E+01  -9.802716535E+01   9.965555877E-05
   1.375700000E-02   9.965524903E+01  -2.988763864E+01  -9.803863490E+01   9.965462903E-05
   1.375800000E-02   9.965431847E+01  -2.988735868E+01  -9.804910079E+01   9.965369793E-05
   1.375900000E-02   9.965338171E+01  -2.988707682E+01  -9.805866356E+01   9.965276092E-05
   1.376000000E-02   9.974956354E+01  -1.494864715E+01  -9.806366353E+01   9.974894261E-05
   1.376100000E-02   9.984848952E+01  -9.981521593E-03  -9.803521458E+01   9.984787064E-05
   1.376200000E-02   9.982328782E+01  -4.191246525E+00  -9.801174941E+01   9.982267396E-05
   1.376300000E-02   9.975509766E+01  -1.488959501E+01  -9.799948484E+01   9.975448118E-05
   1.376400000E-02   9.967353491E+01  -2.748431520E+01  -9.800158825E+01   9.967291554E-05
   1.376500000E-02   9.965709540E+01  -2.988819298E+01  -9.801463369E+01   9.965647718E-05
   1.376600000E-02   9.965617724E+01  -2.988791684E+01  -9.802715865E+01   9.965555791E-05
   1.376700000E-02   9.965524883E+01  -2.988763858E+01  -9.803863733E+01   9.965462883E-05
   1.376800000E-02   9.965431811E+01  -2.988735857E+01  -9.804910480E+01   9.965369757E-05
   1.376900000E-02   9.965338134E+01  -2.988707671E+01  -9.805866723E+01   9.965276056E-05
   1.377000000E-02   9.974948939E+01  -1.496006292E+01  -9.806366580E+01   9.974886846E-05
   1.377100000E-02   9.984848838E+01  -9.981521479E-03  -9.803522953E+01   9.984786951E-05
   1.377200000E-02   9.982330780E+01  -4.188039105E+00  -9.801176116E+01   9.982269394E-05
   1.377300000E-02   9.975508867E+01  -1.489103503E+01  -9.799948393E+01   9.975447219E-05
   1.377400000E-02   9.967350315E+01  -2.748921973E+01  -9.800159221E+01   9.967288377E-05
   1.377500000E-02   9.965709504E+01  -2.988819287E+01  -9.801463886E+01   9.965647682E-05
   1.377600000E-02   9.965617689E+01  -2.988791673E+01  -9.802716347E+01   9.965555755E-05
   1.377700000E-02   9.965524918E+01  -2.988763868E+01  -9.803863318E+01   9.965462917E-05
   1.377800000E-02   9.965431861E+01  -2.988735873E+01  -9.804909923E+01   9.965369808E-05
   1.377900000E-02   9.965338114E+01  -2.988707665E+01  -9.805866925E+01   9.965276035E-05
   1.378000000E-02   9.974941594E+01  -1.497137023E+01  -9.806366805E+01   9.974879501E-05
   1.378100000E-02   9.984848920E+01  -9.981521561E-03  -9.803521401E+01   9.984787033E-05
   1.378200000E-02   9.982329344E+01  -4.190391041E+00  -9.801175042E+01   9.982267448E-05
   1.378300000E-02   9.975511008E+01  -1.488773376E+01  -9.799948609E+01   9.975449142E-05
   1.378400000E-02   9.967347139E+01  -2.749412301E+01  -9.800159617E+01   9.967285200E-05
   1.378500000E-02   9.965710032E+01  -2.988819302E+01  -9.801463167E+01   9.965647732E-05
   1.378600000E-02   9.965617811E+01  -2.988791667E+01  -9.802716613E+01   9.965555736E-05
   1.378700000E-02   9.965524881E+01  -2.988763857E+01  -9.803863757E+01   9.965462881E-05
   1.378800000E-02   9.965431825E+01  -2.988735862E+01  -9.804910323E+01   9.965369771E-05
   1.378900000E-02   9.965338149E+01  -2.988707675E+01  -9.805866579E+01   9.965276070E-05
   1.379000000E-02   9.974979345E+01  -1.491325074E+01  -9.806365649E+01   9.974917251E-05
   1.379100000E-02   9.984848806E+01  -9.981521447E-03  -9.803522897E+01   9.984786919E-05
   1.379200000E-02   9.982328937E+01  -4.191074583E+00  -9.801174803E+01   9.982267041E-05
   1.379300000E-02   9.975507830E+01  -1.489272475E+01  -9.799948289E+01   9.975445963E-05
   1.379400000E-02   9.967351556E+01  -2.748738835E+01  -9.800159066E+01   9.967289619E-05
   1.379500000E-02   9.965709996E+01  -2.988819292E+01  -9.801463684E+01   9.965647696E-05
   1.379600000E-02   9.965617845E+01  -2.988791677E+01  -9.802716158E+01   9.965555769E-05
   1.379700000E-02   9.965524932E+01  -2.988763872E+01  -9.803863147E+01   9.965462932E-05
   1.379800000E-02   9.965431805E+01  -2.988735856E+01  -9.804910545E+01   9.965369751E-05
   1.379900000E-02   9.965338112E+01  -2.988707819E+01  -9.805866945E+01   9.965276033E-05
   1.380000000E-02   9.974926835E+01  -1.499409331E+01  -9.806367257E+01   9.974864742E-05
   1.380100000E-02   9.984848888E+01  -9.981521529E-03  -9.803521822E+01   9.984787001E-05
   1.380200000E-02   9.982329905E+01  -4.189531195E+00  -9.801175373E+01   9.982268010E-05
   1.380300000E-02   9.975512251E+01  -1.488586531E+01  -9.799948734E+01   9.975449876E-05
   1.380400000E-02   9.967348380E+01  -2.749228782E+01  -9.800159462E+01   9.967286443E-05
   1.380500000E-02   9.965710046E+01  -2.988819307E+01  -9.801462966E+01   9.965647474E-05
   1.380600000E-02   9.965617825E+01  -2.988791671E+01  -9.802716425E+01   9.965555750E-05
   1.380700000E-02   9.965524896E+01  -2.988763862E+01  -9.803863585E+01   9.965462895E-05
   1.380800000E-02   9.965431839E+01  -2.988735866E+01  -9.804910167E+01   9.965369785E-05
   1.380900000E-02   9.965338163E+01  -2.988707835E+01  -9.805866436E+01   9.965276084E-05
   1.381000000E-02   9.974964585E+01  -1.493597382E+01  -9.806366101E+01   9.974902492E-05
   1.381100000E-02   9.984848848E+01  -9.981521489E-03  -9.803522352E+01   9.984786960E-05
   1.381200000E-02   9.982329499E+01  -4.190211555E+00  -9.801175134E+01   9.982267604E-05
   1.381300000E-02   9.975509072E+01  -1.489085396E+01  -9.799948414E+01   9.975446697E-05
   1.381400000E-02   9.967352798E+01  -2.748555125E+01  -9.800158644E+01   9.967290861E-05
   1.381500000E-02   9.965710010E+01  -2.988819296E+01  -9.801463482E+01   9.965647438E-05
   1.381600000E-02   9.965617859E+01  -2.988791682E+01  -9.802715970E+01   9.965555783E-05
   1.381700000E-02   9.965524875E+01  -2.988763856E+01  -9.803863829E+01   9.965462875E-05
   1.381800000E-02   9.965431803E+01  -2.988735855E+01  -9.804910567E+01   9.965369749E-05
   1.381900000E-02   9.965338126E+01  -2.988707824E+01  -9.805866802E+01   9.965276048E-05
   1.382000000E-02   9.974957209E+01  -1.494733037E+01  -9.806365945E+01   9.974895116E-05
   1.382100000E-02   9.984848856E+01  -9.981521497E-03  -9.803522242E+01   9.984786969E-05
   1.382200000E-02   9.982330467E+01  -4.188666991E+00  -9.801175703E+01   9.982268571E-05
   1.382300000E-02   9.975508173E+01  -1.489228736E+01  -9.799948323E+01   9.975445797E-05
   1.382400000E-02   9.967349622E+01  -2.749044815E+01  -9.800159040E+01   9.967287430E-05
   1.382500000E-02   9.965709975E+01  -2.988819285E+01  -9.801463998E+01   9.965647403E-05
   1.382600000E-02   9.965617823E+01  -2.988791671E+01  -9.802716452E+01   9.965555748E-05
   1.382700000E-02   9.965524910E+01  -2.988763866E+01  -9.803863414E+01   9.965462909E-05
   1.382800000E-02   9.965431853E+01  -2.988735870E+01  -9.804910010E+01   9.965369800E-05
   1.382900000E-02   9.965338106E+01  -2.988707818E+01  -9.805867005E+01   9.965276027E-05
   1.383000000E-02   9.974949826E+01  -1.495869689E+01  -9.806366172E+01   9.974887733E-05
   1.383100000E-02   9.984848938E+01  -9.981521579E-03  -9.803521167E+01   9.984787050E-05
   1.383200000E-02   9.982329030E+01  -4.191013990E+00  -9.801174858E+01   9.982267135E-05
[...]
   2.478400000E-02   1.037544881E+02  -3.111704218E+01  -9.001812687E+01   1.487825566E+01
   2.478500000E-02   1.037590211E+02  -3.111840180E+01  -9.000822629E+01   1.487660200E+01
   2.478600000E-02   1.037635572E+02  -3.111976141E+01  -8.999833105E+01   1.487496482E+01
   2.478700000E-02   1.037680962E+02  -3.112112279E+01  -8.998842520E+01   1.487334308E+01
   2.478800000E-02   1.037726295E+02  -3.112248317E+01  -8.997852139E+01   1.487173936E+01
   2.478900000E-02   1.037771603E+02  -3.112384144E+01  -8.996862616E+01   1.487015340E+01
   2.479000000E-02   1.037816841E+02  -3.112519909E+01  -8.995873809E+01   1.486858347E+01
   2.479100000E-02   1.037862160E+02  -3.112655766E+01  -8.994883865E+01   1.486703292E+01
   2.479200000E-02   1.037907396E+02  -3.112791456E+01  -8.993894732E+01   1.486549944E+01
   2.479300000E-02   1.037952628E+02  -3.112927227E+01  -8.992905437E+01   1.486398146E+01
   2.479400000E-02   1.037997912E+02  -3.113062864E+01  -8.991916676E+01   1.486248101E+01
   2.479500000E-02   1.038043172E+02  -3.113198754E+01  -8.990926321E+01   1.486099540E+01
   2.479600000E-02   1.038088406E+02  -3.113334467E+01  -8.989936474E+01   1.485952848E+01
   2.479700000E-02   1.038133638E+02  -3.113470047E+01  -8.988947713E+01   1.485807915E+01
   2.479800000E-02   1.038178816E+02  -3.113605493E+01  -8.987959182E+01   1.485664603E+01
   2.479900000E-02   1.038224024E+02  -3.113741016E+01  -8.986970116E+01   1.485523045E+01
   2.480000000E-02   1.038269205E+02  -3.113876563E+01  -8.985981152E+01   1.485382956E+01
   2.480100000E-02   1.038314359E+02  -3.114011889E+01  -8.984992604E+01   1.485244985E+01
   2.480200000E-02   1.038359518E+02  -3.114147417E+01  -8.984003002E+01   1.485108345E+01
   2.480300000E-02   1.038404676E+02  -3.114282882E+01  -8.983013918E+01   1.484973415E+01
   2.480400000E-02   1.038449831E+02  -3.114418271E+01  -8.982025386E+01   1.484840277E+01
   2.480500000E-02   1.038494933E+02  -3.114553527E+01  -8.981037389E+01   1.484708787E+01
   2.480600000E-02   1.038540011E+02  -3.114688725E+01  -8.980049086E+01   1.484578986E+01
   2.480700000E-02   1.038585090E+02  -3.114823924E+01  -8.979061087E+01   1.484450833E+01
   2.480800000E-02   1.038630169E+02  -3.114959122E+01  -8.978072785E+01   1.484324300E+01
   2.480900000E-02   1.038675248E+02  -3.115094321E+01  -8.977084786E+01   1.484199388E+01
   2.481000000E-02   1.038720307E+02  -3.115229468E+01  -8.976096283E+01   1.484075967E+01
   2.481100000E-02   1.038765389E+02  -3.115364618E+01  -8.975107822E+01   1.483954377E+01
   2.481200000E-02   1.038810439E+02  -3.115499653E+01  -8.974119639E+01   1.483834410E+01
   2.481300000E-02   1.038855442E+02  -3.115634661E+01  -8.973131870E+01   1.483716079E+01
   2.481400000E-02   1.038900444E+02  -3.115769669E+01  -8.972144101E+01   1.483599301E+01
   2.481500000E-02   1.038945393E+02  -3.115904543E+01  -8.971156332E+01   1.483484181E+01
   2.481600000E-02   1.038990373E+02  -3.116039494E+01  -8.970169096E+01   1.483370644E+01
   2.481700000E-02   1.039035322E+02  -3.116174368E+01  -8.969181557E+01   1.483258699E+01
   2.481800000E-02   1.039080361E+02  -3.116309361E+01  -8.968193034E+01   1.483148165E+01
   2.481900000E-02   1.039125335E+02  -3.116444120E+01  -8.967205476E+01   1.483039240E+01
   2.482000000E-02   1.039170230E+02  -3.116578779E+01  -8.966218502E+01   1.482931941E+01
   2.482100000E-02   1.039215130E+02  -3.116713587E+01  -8.965231131E+01   1.482826274E+01
   2.482200000E-02   1.039260038E+02  -3.116848190E+01  -8.964244457E+01   1.482722220E+01
   2.482300000E-02   1.039304911E+02  -3.116982817E+01  -8.963257451E+01   1.482619581E+01
   2.482400000E-02   1.039349814E+02  -3.117117443E+01  -8.962270444E+01   1.482518439E+01
   2.482500000E-02   1.039394687E+02  -3.117251936E+01  -8.961283438E+01   1.482418822E+01
   2.482600000E-02   1.039439596E+02  -3.117386681E+01  -8.960295679E+01   1.482320603E+01
   2.482700000E-02   1.039484471E+02  -3.117521249E+01  -8.959308884E+01   1.482223984E+01
   2.482800000E-02   1.039529267E+02  -3.117655685E+01  -8.958322107E+01   1.482128879E+01
   2.482900000E-02   1.039574095E+02  -3.117790120E+01  -8.957335634E+01   1.482035203E+01
   2.483000000E-02   1.039618894E+02  -3.117924466E+01  -8.956348731E+01   1.481942802E+01
   2.483100000E-02   1.039663666E+02  -3.118058720E+01  -8.955363043E+01   1.481852220E+01
   2.483200000E-02   1.039708439E+02  -3.118192913E+01  -8.954376903E+01   1.481762945E+01
   2.483300000E-02   1.039753271E+02  -3.118327333E+01  -8.953389908E+01   1.481674941E+01
   2.483400000E-02   1.039798070E+02  -3.118461653E+01  -8.952403342E+01   1.481588397E+01
   2.483500000E-02   1.039842790E+02  -3.118595898E+01  -8.951417099E+01   1.481503303E+01
   2.483600000E-02   1.039887488E+02  -3.118730010E+01  -8.950431389E+01   1.481419571E+01
   2.483700000E-02   1.039932238E+02  -3.118864064E+01  -8.949445908E+01   1.481337242E+01
   2.483800000E-02   1.039976959E+02  -3.118998118E+01  -8.948460428E+01   1.481256275E+01
   2.483900000E-02   1.040021603E+02  -3.119132173E+01  -8.947474947E+01   1.481176642E+01
   2.484000000E-02   1.040066334E+02  -3.119266308E+01  -8.946488656E+01   1.481098182E+01
   2.484100000E-02   1.040110986E+02  -3.119400313E+01  -8.945502676E+01   1.481021257E+01
   2.484200000E-02   1.040155680E+02  -3.119534261E+01  -8.944516669E+01   1.480945612E+01
   2.484300000E-02   1.040200324E+02  -3.119668125E+01  -8.943531722E+01   1.480871254E+01
   2.484400000E-02   1.040244945E+02  -3.119801988E+01  -8.942546470E+01   1.480798134E+01
   2.484500000E-02   1.040289566E+02  -3.119935852E+01  -8.941561523E+01   1.480726321E+01
   2.484600000E-02   1.040334187E+02  -3.120069582E+01  -8.940576805E+01   1.480655709E+01
   2.484700000E-02   1.040378755E+02  -3.120203255E+01  -8.939592087E+01   1.480586373E+01
   2.484800000E-02   1.040423300E+02  -3.120336928E+01  -8.938607369E+01   1.480518239E+01
   2.484900000E-02   1.040467957E+02  -3.120470776E+01  -8.937621367E+01   1.480451229E+01
   2.485000000E-02   1.040512518E+02  -3.120604460E+01  -8.936636055E+01   1.480385427E+01
   2.485100000E-02   1.040557005E+02  -3.120738007E+01  -8.935651851E+01   1.480321013E+01
   2.485200000E-02   1.040601563E+02  -3.120871545E+01  -8.934667197E+01   1.480257635E+01
   2.485300000E-02   1.040646108E+02  -3.121005027E+01  -8.933683241E+01   1.480195413E+01
   2.485400000E-02   1.040690599E+02  -3.121138510E+01  -8.932698752E+01   1.480134335E+01
   2.485500000E-02   1.040735068E+02  -3.121271992E+01  -8.931714568E+01   1.480074400E+01
   2.485600000E-02   1.040779537E+02  -3.121405341E+01  -8.930730612E+01   1.480015543E+01
   2.485700000E-02   1.040824063E+02  -3.121538940E+01  -8.929745374E+01   1.479957727E+01
   2.485800000E-02   1.040868557E+02  -3.121672363E+01  -8.928760869E+01   1.479901032E+01
   2.485900000E-02   1.040913026E+02  -3.121805655E+01  -8.927777448E+01   1.479845418E+01
   2.486000000E-02   1.040957402E+02  -3.121938769E+01  -8.926793903E+01   1.479790748E+01
   2.486100000E-02   1.041001834E+02  -3.122072099E+01  -8.925809968E+01   1.479737306E+01
   2.486200000E-02   1.041046226E+02  -3.122205206E+01  -8.924827107E+01   1.479684800E+01
   2.486300000E-02   1.041090618E+02  -3.122338307E+01  -8.923843381E+01   1.479633285E+01
   2.486400000E-02   1.041135068E+02  -3.122471581E+01  -8.922858677E+01   1.479582686E+01
   2.486500000E-02   1.041179432E+02  -3.122604756E+01  -8.921874935E+01   1.479533080E+01
   2.486600000E-02   1.041223802E+02  -3.122737724E+01  -8.920891743E+01   1.479484454E+01
   2.486700000E-02   1.041268141E+02  -3.122870634E+01  -8.919909084E+01   1.479436783E+01
   2.486800000E-02   1.041312457E+02  -3.123003544E+01  -8.918926121E+01   1.479389997E+01
   2.486900000E-02   1.041356773E+02  -3.123136454E+01  -8.917943462E+01   1.479344136E+01
   2.487000000E-02   1.041401107E+02  -3.123269483E+01  -8.916959994E+01   1.479299109E+01
   2.487100000E-02   1.041445364E+02  -3.123402164E+01  -8.915977736E+01   1.479255093E+01
   2.487200000E-02   1.041489703E+02  -3.123535168E+01  -8.914994128E+01   1.479211893E+01
   2.487300000E-02   1.041533990E+02  -3.123668019E+01  -8.914011150E+01   1.479169498E+01
   2.487400000E-02   1.041578230E+02  -3.123800738E+01  -8.913028720E+01   1.479127890E+01
   2.487500000E-02   1.041622470E+02  -3.123933324E+01  -8.912046824E+01   1.479087178E+01
   2.487600000E-02   1.041666710E+02  -3.124065987E+01  -8.911064623E+01   1.479047220E+01
   2.487700000E-02   1.041710896E+02  -3.124198573E+01  -8.910082727E+01   1.479008061E+01
   2.487800000E-02   1.041755113E+02  -3.124331101E+01  -8.909100527E+01   1.478969628E+01
   2.487900000E-02   1.041799300E+02  -3.124463630E+01  -8.908118630E+01   1.478931995E+01
   2.488000000E-02   1.041843512E+02  -3.124596258E+01  -8.907136538E+01   1.478895011E+01
   2.488100000E-02   1.041887696E+02  -3.124728879E+01  -8.906153994E+01   1.478858838E+01
   2.488200000E-02   1.041931873E+02  -3.124861330E+01  -8.905171801E+01   1.478823367E+01
   2.488300000E-02   1.041976036E+02  -3.124993668E+01  -8.904190668E+01   1.478788557E+01
   2.488400000E-02   1.042020147E+02  -3.125126007E+01  -8.903209230E+01   1.478754414E+01
   2.488500000E-02   1.042064234E+02  -3.125258345E+01  -8.902228096E+01   1.478720872E+01
   2.488600000E-02   1.042108374E+02  -3.125390550E+01  -8.901246659E+01   1.478688034E+01
   2.488700000E-02   1.042152431E+02  -3.125522830E+01  -8.900265525E+01   1.478655827E+01
   2.488800000E-02   1.042196553E+02  -3.125655208E+01  -8.899283341E+01   1.478624150E+01
   2.488900000E-02   1.042240665E+02  -3.125787429E+01  -8.898301889E+01   1.478593069E+01
   2.489000000E-02   1.042284698E+02  -3.125919437E+01  -8.897321702E+01   1.478562593E+01
   2.489100000E-02   1.042328787E+02  -3.126051599E+01  -8.896340341E+01   1.478532725E+01
   2.489200000E-02   1.042372797E+02  -3.126183547E+01  -8.895359939E+01   1.478503408E+01
   2.489300000E-02   1.042416808E+02  -3.126315637E+01  -8.894379569E+01   1.478474632E+01
   2.489400000E-02   1.042460819E+02  -3.126447652E+01  -8.893398894E+01   1.478446296E+01
   2.489500000E-02   1.042504777E+02  -3.126579475E+01  -8.892418523E+01   1.478418474E+01
   2.489600000E-02   1.042548823E+02  -3.126711546E+01  -8.891437103E+01   1.478391122E+01
   2.489700000E-02   1.042592805E+02  -3.126843443E+01  -8.890456414E+01   1.478364267E+01
   2.489800000E-02   1.042636739E+02  -3.126975343E+01  -8.889476272E+01   1.478337905E+01
   2.489900000E-02   1.042680674E+02  -3.127107166E+01  -8.888496131E+01   1.478311952E+01
   2.490000000E-02   1.042724665E+02  -3.127238897E+01  -8.887516021E+01   1.478286352E+01
   2.490100000E-02   1.042768550E+02  -3.127370602E+01  -8.886536813E+01   1.478261264E+01
   2.490200000E-02   1.042812425E+02  -3.127502141E+01  -8.885557232E+01   1.478236543E+01
   2.490300000E-02   1.042856394E+02  -3.127634021E+01  -8.884576346E+01   1.478212179E+01
   2.490400000E-02   1.042900300E+02  -3.127765727E+01  -8.883596421E+01   1.478188149E+01
   2.490500000E-02   1.042944159E+02  -3.127897303E+01  -8.882617042E+01   1.478164551E+01
   2.490600000E-02   1.042988017E+02  -3.128028745E+01  -8.881637663E+01   1.478141230E+01
   2.490700000E-02   1.043031876E+02  -3.128160263E+01  -8.880658818E+01   1.478118233E+01
   2.490800000E-02   1.043075681E+02  -3.128291705E+01  -8.879679669E+01   1.478095550E+01
   2.490900000E-02   1.043119516E+02  -3.128423089E+01  -8.878700823E+01   1.478073221E+01
   2.491000000E-02   1.043163331E+02  -3.128554515E+01  -8.877721174E+01   1.478051094E+01
   2.491100000E-02   1.043207172E+02  -3.128686063E+01  -8.876741587E+01   1.478029209E+01
   2.491200000E-02   1.043250967E+02  -3.128817355E+01  -8.875762390E+01   1.478007640E+01
   2.491300000E-02   1.043294749E+02  -3.128948549E+01  -8.874783774E+01   1.477986321E+01
   2.491400000E-02   1.043338478E+02  -3.129079743E+01  -8.873805158E+01   1.477965193E+01
   2.491500000E-02   1.043382238E+02  -3.129210937E+01  -8.872827076E+01   1.477944255E+01
   2.491600000E-02   1.043425966E+02  -3.129342131E+01  -8.871848689E+01   1.477923508E+01
   2.491700000E-02   1.043469672E+02  -3.129473325E+01  -8.870870606E+01   1.477902952E+01
   2.491800000E-02   1.043513378E+02  -3.129604386E+01  -8.869892219E+01   1.477882586E+01
   2.491900000E-02   1.043557141E+02  -3.129735560E+01  -8.868912861E+01   1.477862318E+01
   2.492000000E-02   1.043600818E+02  -3.129866631E+01  -8.867934951E+01   1.477842231E+01
   2.492100000E-02   1.043644494E+02  -3.129997556E+01  -8.866957610E+01   1.477822368E+01
   2.492200000E-02   1.043688154E+02  -3.130128510E+01  -8.865979518E+01   1.477802507E+01
   2.492300000E-02   1.043731783E+02  -3.130259456E+01  -8.865001665E+01   1.477782742E+01
   2.492400000E-02   1.043775413E+02  -3.130390326E+01  -8.864023812E+01   1.477763139E+01
   2.492500000E-02   1.043819043E+02  -3.130521138E+01  -8.863046492E+01   1.477743593E+01
   2.492600000E-02   1.043862672E+02  -3.130651951E+01  -8.862069402E+01   1.477724048E+01
   2.492700000E-02   1.043906305E+02  -3.130782801E+01  -8.861091037E+01   1.477704610E+01
   2.492800000E-02   1.043949936E+02  -3.130913629E+01  -8.860112866E+01   1.477685177E+01
   2.492900000E-02   1.043993513E+02  -3.131044308E+01  -8.859135547E+01   1.477665794E+01
   2.493000000E-02   1.044037043E+02  -3.131174906E+01  -8.858159171E+01   1.477646500E+01
   2.493100000E-02   1.044080626E+02  -3.131305589E+01  -8.857181913E+01   1.477627160E+01
   2.493200000E-02   1.044124119E+02  -3.131436041E+01  -8.856205572E+01   1.477607824E+01
   2.493300000E-02   1.044167650E+02  -3.131566605E+01  -8.855228711E+01   1.477588403E+01
   2.493400000E-02   1.044211207E+02  -3.131697264E+01  -8.854250880E+01   1.477568994E+01
   2.493500000E-02   1.044254761E+02  -3.131827768E+01  -8.853274007E+01   1.477549561E+01
   2.493600000E-02   1.044298261E+02  -3.131958200E+01  -8.852297680E+01   1.477530044E+01
   2.493700000E-02   1.044341738E+02  -3.132088631E+01  -8.851321352E+01   1.477510499E+01
   2.493800000E-02   1.044385162E+02  -3.132218929E+01  -8.850345024E+01   1.477490886E+01
   2.493900000E-02   1.044428616E+02  -3.132349303E+01  -8.849368696E+01   1.477471179E+01
   2.494000000E-02   1.044472088E+02  -3.132479583E+01  -8.848392404E+01   1.477451323E+01
   2.494100000E-02   1.044515506E+02  -3.132609835E+01  -8.847417007E+01   1.477431405E+01
   2.494200000E-02   1.044558975E+02  -3.132740118E+01  -8.846439966E+01   1.477411362E+01
   2.494300000E-02   1.044602400E+02  -3.132870374E+01  -8.845463627E+01   1.477391195E+01
   2.494400000E-02   1.044645801E+02  -3.133000481E+01  -8.844488062E+01   1.477370915E+01
   2.494500000E-02   1.044689148E+02  -3.133130665E+01  -8.843512497E+01   1.477350473E+01
   2.494600000E-02   1.044732526E+02  -3.133260772E+01  -8.842536932E+01   1.477329908E+01
   2.494700000E-02   1.044775873E+02  -3.133390688E+01  -8.841561367E+01   1.477309113E+01
   2.494800000E-02   1.044819198E+02  -3.133520681E+01  -8.840586336E+01   1.477288166E+01
   2.494900000E-02   1.044862522E+02  -3.133650731E+01  -8.839611000E+01   1.477267057E+01
   2.495000000E-02   1.044905910E+02  -3.133780611E+01  -8.838635702E+01   1.477245770E+01
   2.495100000E-02   1.044949245E+02  -3.133910680E+01  -8.837659931E+01   1.477224243E+01
   2.495200000E-02   1.044992523E+02  -3.134040608E+01  -8.836684548E+01   1.477202478E+01
   2.495300000E-02   1.045035825E+02  -3.134170334E+01  -8.835709746E+01   1.477180511E+01
   2.495400000E-02   1.045079096E+02  -3.134300136E+01  -8.834734944E+01   1.477158353E+01
   2.495500000E-02   1.045122344E+02  -3.134429861E+01  -8.833760675E+01   1.477135937E+01
   2.495600000E-02   1.045165593E+02  -3.134559530E+01  -8.832786102E+01   1.477113303E+01
   2.495700000E-02   1.045208841E+02  -3.134689198E+01  -8.831811300E+01   1.477090411E+01
   2.495800000E-02   1.045252146E+02  -3.134819036E+01  -8.830835761E+01   1.477067203E+01
   2.495900000E-02   1.045295365E+02  -3.134948777E+01  -8.829861177E+01   1.477043725E+01
   2.496000000E-02   1.045338551E+02  -3.135078231E+01  -8.828887624E+01   1.477020075E+01
   2.496100000E-02   1.045381715E+02  -3.135207840E+01  -8.827912940E+01   1.476996013E+01
   2.496200000E-02   1.045424881E+02  -3.135337268E+01  -8.826939059E+01   1.476971711E+01
   2.496300000E-02   1.045468053E+02  -3.135466746E+01  -8.825965019E+01   1.476947103E+01
   2.496400000E-02   1.045511225E+02  -3.135596223E+01  -8.824991513E+01   1.476922209E+01
   2.496500000E-02   1.045554453E+02  -3.135725737E+01  -8.824016433E+01   1.476896996E+01
   2.496600000E-02   1.045597596E+02  -3.135855096E+01  -8.823042384E+01   1.476871448E+01
   2.496700000E-02   1.045640691E+02  -3.135984383E+01  -8.822069107E+01   1.476845533E+01
   2.496800000E-02   1.045683787E+02  -3.136113670E+01  -8.821095830E+01   1.476819304E+01
   2.496900000E-02   1.045726883E+02  -3.136242957E+01  -8.820122554E+01   1.476792789E+01
   2.497000000E-02   1.045770011E+02  -3.136372227E+01  -8.819148322E+01   1.476765958E+01
   2.497100000E-02   1.045813039E+02  -3.136501406E+01  -8.818175785E+01   1.476738678E+01
   2.497200000E-02   1.045856094E+02  -3.136630495E+01  -8.817202723E+01   1.476711041E+01
   2.497300000E-02   1.045899192E+02  -3.136759759E+01  -8.816228712E+01   1.476683059E+01
   2.497400000E-02   1.045942236E+02  -3.136888928E+01  -8.815255655E+01   1.476654745E+01
   2.497500000E-02   1.045985255E+02  -3.137017891E+01  -8.814282606E+01   1.476625998E+01
   2.497600000E-02   1.046028274E+02  -3.137146930E+01  -8.813309864E+01   1.476596909E+01
   2.497700000E-02   1.046071294E+02  -3.137275893E+01  -8.812337350E+01   1.476567400E+01
   2.497800000E-02   1.046114313E+02  -3.137404799E+01  -8.811364836E+01   1.476537547E+01
   2.497900000E-02   1.046157279E+02  -3.137533705E+01  -8.810392322E+01   1.476507276E+01
   2.498000000E-02   1.046200247E+02  -3.137662573E+01  -8.809419847E+01   1.476476628E+01
   2.498100000E-02   1.046243239E+02  -3.137791497E+01  -8.808446653E+01   1.476445501E+01
   2.498200000E-02   1.046286189E+02  -3.137920338E+01  -8.807474266E+01   1.476413962E+01
   2.498300000E-02   1.046329132E+02  -3.138049053E+01  -8.806501980E+01   1.476382040E+01
   2.498400000E-02   1.046372075E+02  -3.138177768E+01  -8.805530000E+01   1.476349737E+01
   2.498500000E-02   1.046414965E+02  -3.138306483E+01  -8.804558249E+01   1.476316987E+01
   2.498600000E-02   1.046457832E+02  -3.138435198E+01  -8.803586498E+01   1.476283826E+01
   2.498700000E-02   1.046500752E+02  -3.138563780E+01  -8.802614747E+01   1.476250217E+01
   2.498800000E-02   1.046543642E+02  -3.138692304E+01  -8.801643529E+01   1.476216132E+01
   2.498900000E-02   1.046586511E+02  -3.138820996E+01  -8.800670740E+01   1.476181592E+01
   2.499000000E-02   1.046629379E+02  -3.138949606E+01  -8.799698857E+01   1.476146692E+01
   2.499100000E-02   1.046672217E+02  -3.139078077E+01  -8.798727808E+01   1.476111304E+01
   2.499200000E-02   1.046715060E+02  -3.139206508E+01  -8.797756240E+01   1.476075473E+01
   2.499300000E-02   1.046757850E+02  -3.139334975E+01  -8.796785252E+01   1.476039194E+01
   2.499400000E-02   1.046800641E+02  -3.139463366E+01  -8.795814264E+01   1.476002439E+01
   2.499500000E-02   1.046843431E+02  -3.139591700E+01  -8.794843275E+01   1.475965274E+01
   2.499600000E-02   1.046886278E+02  -3.139720067E+01  -8.793871020E+01   1.475927612E+01
   2.499700000E-02   1.046929092E+02  -3.139848415E+01  -8.792899490E+01   1.475889433E+01
   2.499800000E-02   1.046971830E+02  -3.139976616E+01  -8.791929035E+01   1.475850838E+01
   2.499900000E-02   1.047014597E+02  -3.140104892E+01  -8.790958276E+01   1.475811794E+01
   2.500000000E-02   1.047057326E+02  -3.140232992E+01  -8.789988308E+01   1.475772396E+01
   2.500000037E-02   1.047057343E+02  -3.140233040E+01  -8.789987946E+01   1.475772381E+01




          JOB CONCLUDED

          TOTAL JOB TIME            5.64
