
**** 05/31/13 10:26:48 ********* PSpice 9.2 (Mar 2000) ******** ID# 1 ********

 ** Profile: "SCHEMATIC1-2"  [ G:\44FZ\paralel-schematic1-2.sim ] 


 ****     CIRCUIT DESCRIPTION


******************************************************************************




** Creating circuit file "paralel-schematic1-2.sim.cir" 
** WARNING: THIS AUTOMATICALLY GENERATED FILE MAY BE OVERWRITTEN BY SUBSEQUENT SIMULATIONS

*Libraries: 
* Local Libraries :
* From [PSPICE NETLIST] section of g:\program files\Orcad\PSpice\PSpice.ini file:
.lib "nom.lib" 

*Analysis directives: 
.TRAN 1u 25ms 13ms 1u 
.OPTIONS NOBIAS
.OPTIONS NOMOD
.OPTIONS NOOUTMSG
.OPTIONS ITL4= 100
.OPTIONS NUMDGT= 10
.OPTIONS WIDTH= 132
.PROBE V(*) I(*) W(*) D(*) NOISE(*) 
.INC ".\paralel-SCHEMATIC1.net" 



**** INCLUDING paralel-SCHEMATIC1.net ****
* source PARALEL
R_R2         0 N50597  1MEG  
X_S4    N241303 0 N27236 N241265 SCHEMATIC1_S4 
X_S2    N236610 0 N27236 N235437 SCHEMATIC1_S2 
R_RB1         0 SHIM  3.33333  
R_R6         0 N260882  1MEG  
E_DIFF3         N241303 0 VALUE {V(N257386,N254383)}
R_RB2         0 N235437  4  
R_R8         0 N260240  1MEG  
X_U2         N260882 N254383 Sw_tClose PARAMS: tClose=24.5m ttran=1u
+  Rclosed=0.01 Ropen=1Meg
E_E1         N62053 0 VALUE {
+  if(I(V_V1)<138.9473,(-25.641*log((139.2857-I(V_V1))/139.2857))/-1.204+128.2051,0)
+  }
R_RB3         0 N239113  4  
C_CN         N40356 RN1  0.001  
L_L2         N64666 RN1  5uH  
C_CF         N00729 N27236  0.009  
V_V4         N259871 0   0.7
R_R4         0 N254383  1MEG  
R_RK2         N234987 N64666  0.02630  
R_RCN         0 N40356  0.02171  
V_V3         N50597 0 DC 0.01 AC 1
+PULSE 0 0.8 0 0.0098m 0.0001m 0.01m 0.01m
R_RCF         N00729 0  6.51419e-3  
X_S3    N239167 0 N27236 N239113 SCHEMATIC1_S3 
V_V5         N260240 0   0.7
X_U3         N260009 N260882 Sw_tClose PARAMS: tClose=24.5m ttran=1u
+  Rclosed=0.01 Ropen=1Meg
R_R7         0 N260009  1MEG  
L_L1         N134688 N27236  5uH  
V_V6         N257386 0   0.7
X_S1    N27337 0 N27236 SHIM SCHEMATIC1_S1 
R_RDN         0 N27236  40  
E_DIFF1         N50582 0 VALUE {V(N08877,N27236)}
E_DIFF4         N239167 0 VALUE {V(N260240,N260882)}
V_V2         N254251 0   1
V_V1         N62053 N134650 DC 0 AC 1 0
R_RB4         0 N241265  4  
V_Unom         N08877 0   100
R_R3         0 N254251  1MEG  
E_DIFF5         N236610 0 VALUE {V(N259871,N260009)}
R_RA         0 RN1  2.5  
R_RK1         N134688 N134650  0.02630  
E_DIFF2         N27337 0 VALUE {V(N50597,N50582)}
R_R5         0 N257386  1MEG  
X_SwStart         N27236 N234987 Sw_tClose PARAMS: tClose=14m ttran=1u
+  Rclosed=1u Ropen=1MEG
X_U1         N254383 N254251 Sw_tClose PARAMS: tClose=14.08m ttran=1u
+  Rclosed=0.01 Ropen=1Meg
R_R1         0 N08877  1MEG  
R_R9         0 N259871  1MEG  
.IC         V(N134650 )=5
.PRINT         TRAN V([N27236]) I(R_RB1) I(R_RK1) I(R_RK2)

.subckt SCHEMATIC1_S4 1 2 3 4  
S_S4         3 4 1 2 _S4
RS_S4         1 2 1G
.MODEL         _S4 VSWITCH Roff=1e4 Ron=1m Voff=-1e-4 Von=1e-4
.ends SCHEMATIC1_S4

.subckt SCHEMATIC1_S2 1 2 3 4  
S_S2         3 4 1 2 _S2
RS_S2         1 2 1G
.MODEL         _S2 VSWITCH Roff=1e4 Ron=0.1m Voff=-1e-4 Von=1e-4
.ends SCHEMATIC1_S2

.subckt SCHEMATIC1_S3 1 2 3 4  
S_S3         3 4 1 2 _S3
RS_S3         1 2 1G
.MODEL         _S3 VSWITCH Roff=1e4 Ron=1m Voff=-1e-4 Von=1e-4
.ends SCHEMATIC1_S3

.subckt SCHEMATIC1_S1 1 2 3 4  
S_S1         3 4 1 2 _S1
RS_S1         1 2 1G
.MODEL         _S1 VSWITCH Roff=1e4 Ron=1m Voff=-1e-4 Von=1e-4
.ends SCHEMATIC1_S1

**** RESUMING paralel-schematic1-2.sim.cir ****
.END

WARNING -- Pulse Period < (Rise Time + Fall Time + Pulse Width) for V_V3
WARNING -- Pulse Period < (Rise Time + Fall Time + Pulse Width) for V_V3
**** 05/31/13 10:26:48 ********* PSpice 9.2 (Mar 2000) ******** ID# 1 ********

 ** Profile: "SCHEMATIC1-2"  [ G:\44FZ\paralel-schematic1-2.sim ] 


 ****     TRANSIENT ANALYSIS               TEMPERATURE =   27.000 DEG C


******************************************************************************



  TIME              V(N27236)         I(R_RB1)          I(R_RK1)          I(R_RK2)          

   1.300000000E-02   9.984606869E+01  -9.981280130E-03  -9.806647543E+01   9.984580427E-05
   1.300100000E-02   9.984817359E+01  -9.981489939E-03  -9.803760821E+01   9.984793506E-05
   1.300200000E-02   9.983615145E+01  -2.173023181E+00  -9.801264043E+01   9.983591498E-05
   1.300300000E-02   9.975512896E+01  -1.486759675E+01  -9.799906096E+01   9.975489696E-05
   1.300400000E-02   9.967346154E+01  -2.746403132E+01  -9.800230833E+01   9.967322682E-05
   1.300500000E-02   9.965686699E+01  -2.988812291E+01  -9.801553996E+01   9.965663171E-05
   1.300600000E-02   9.965594395E+01  -2.988784784E+01  -9.802807138E+01   9.965570779E-05
   1.300700000E-02   9.965501936E+01  -2.988756898E+01  -9.803949567E+01   9.965478235E-05
   1.300800000E-02   9.965408791E+01  -2.988728867E+01  -9.804991549E+01   9.965385040E-05
   1.300900000E-02   9.965314942E+01  -2.988700828E+01  -9.805944311E+01   9.965291128E-05
   1.301000000E-02   9.974900249E+01  -1.499975064E+01  -9.806438707E+01   9.974876325E-05
   1.301100000E-02   9.984825992E+01  -9.981498587E-03  -9.803591164E+01   9.984802272E-05
   1.301200000E-02   9.982323176E+01  -4.164523957E+00  -9.801240382E+01   9.982299724E-05
   1.301300000E-02   9.975512562E+01  -1.485035088E+01  -9.800007820E+01   9.975488750E-05
   1.301400000E-02   9.967348691E+01  -2.745746328E+01  -9.800212104E+01   9.967325062E-05
   1.301500000E-02   9.965716010E+01  -2.984530978E+01  -9.801497253E+01   9.965692219E-05
   1.301600000E-02   9.965596811E+01  -2.988785255E+01  -9.802753652E+01   9.965573503E-05
   1.301700000E-02   9.965503951E+01  -2.988757427E+01  -9.803901279E+01   9.965480104E-05
   1.301800000E-02   9.965410880E+01  -2.988729581E+01  -9.804947619E+01   9.965387452E-05
   1.301900000E-02   9.965317194E+01  -2.988701426E+01  -9.805904213E+01   9.965293269E-05
   1.302000000E-02   9.974939908E+01  -1.494163415E+01  -9.806403598E+01   9.974915894E-05
   1.302100000E-02   9.984827886E+01  -9.981501114E-03  -9.803558713E+01   9.984804264E-05
   1.302200000E-02   9.982322205E+01  -4.169133268E+00  -9.801211155E+01   9.982298951E-05
   1.302300000E-02   9.975509384E+01  -1.485856526E+01  -9.799981633E+01   9.975485571E-05
   1.302400000E-02   9.967353109E+01  -2.745390824E+01  -9.800188895E+01   9.967329480E-05
   1.302500000E-02   9.965717842E+01  -2.984593170E+01  -9.801477321E+01   9.965693964E-05
   1.302600000E-02   9.965598435E+01  -2.988786007E+01  -9.802734927E+01   9.965575050E-05
   1.302700000E-02   9.965506142E+01  -2.988758200E+01  -9.803883666E+01   9.965482195E-05
   1.302800000E-02   9.965412590E+01  -2.988730202E+01  -9.804931535E+01   9.965389685E-05
   1.302900000E-02   9.965318699E+01  -2.988702149E+01  -9.805889797E+01   9.965294830E-05
   1.303000000E-02   9.974934421E+01  -1.495302014E+01  -9.806390092E+01   9.974910683E-05
   1.303100000E-02   9.984829775E+01  -9.981502863E-03  -9.803547715E+01   9.984805878E-05
   1.303200000E-02   9.982324880E+01  -4.168190844E+00  -9.801200658E+01   9.982301375E-05
   1.303300000E-02   9.975508485E+01  -1.486318864E+01  -9.799971166E+01   9.975484671E-05
   1.303400000E-02   9.967349933E+01  -2.746193679E+01  -9.800179868E+01   9.967326303E-05
   1.303500000E-02   9.965719823E+01  -2.984639700E+01  -9.801467656E+01   9.965695857E-05
   1.303600000E-02   9.965600774E+01  -2.988786594E+01  -9.802726359E+01   9.965577282E-05
   1.303700000E-02   9.965507780E+01  -2.988758766E+01  -9.803876293E+01   9.965483756E-05
   1.303800000E-02   9.965414709E+01  -2.988730764E+01  -9.804924307E+01   9.965391104E-05
   1.303900000E-02   9.965321023E+01  -2.988702732E+01  -9.805882440E+01   9.965296921E-05
   1.304000000E-02   9.974929344E+01  -1.496436386E+01  -9.806383832E+01   9.974905500E-05
   1.304100000E-02   9.984832146E+01  -9.981504807E-03  -9.803540060E+01   9.984808143E-05
   1.304200000E-02   9.982324137E+01  -4.172700051E+00  -9.801194014E+01   9.982300600E-05
   1.304300000E-02   9.975510626E+01  -1.486294951E+01  -9.799966042E+01   9.975486814E-05
   1.304400000E-02   9.967349416E+01  -2.746577146E+01  -9.800174859E+01   9.967325786E-05
   1.304500000E-02   9.965720987E+01  -2.984702392E+01  -9.801464098E+01   9.965696962E-05
   1.304600000E-02   9.965602893E+01  -2.988787156E+01  -9.802722398E+01   9.965579302E-05
   1.304700000E-02   9.965510104E+01  -2.988759349E+01  -9.803871287E+01   9.965485974E-05
   1.304800000E-02   9.965416976E+01  -2.988731329E+01  -9.804920593E+01   9.965393266E-05
   1.304900000E-02   9.965323276E+01  -2.988703294E+01  -9.805878993E+01   9.965299067E-05
   1.305000000E-02   9.974969003E+01  -1.490624732E+01  -9.806378480E+01   9.974945069E-05
   1.305100000E-02   9.984833844E+01  -9.981506556E-03  -9.803537453E+01   9.984810212E-05
   1.305200000E-02   9.982326585E+01  -4.171573885E+00  -9.801191375E+01   9.982303245E-05
   1.305300000E-02   9.975509728E+01  -1.486731240E+01  -9.799962671E+01   9.975485915E-05
   1.305400000E-02   9.967351175E+01  -2.746597940E+01  -9.800171588E+01   9.967327545E-05
   1.305500000E-02   9.965723006E+01  -2.984740860E+01  -9.801460316E+01   9.965698894E-05
   1.305600000E-02   9.965604532E+01  -2.988787722E+01  -9.802719627E+01   9.965581464E-05
   1.305700000E-02   9.965511594E+01  -2.988759910E+01  -9.803868676E+01   9.965488121E-05
   1.305800000E-02   9.965418538E+01  -2.988731912E+01  -9.804917150E+01   9.965395484E-05
   1.305900000E-02   9.965324852E+01  -2.988703881E+01  -9.805875430E+01   9.965300702E-05
   1.306000000E-02   9.974918399E+01  -1.498709264E+01  -9.806377037E+01   9.974894378E-05
   1.306100000E-02   9.984835928E+01  -9.981508501E-03  -9.803533327E+01   9.984812204E-05
   1.306200000E-02   9.982325841E+01  -4.175886424E+00  -9.801187478E+01   9.982302469E-05
   1.306300000E-02   9.975511869E+01  -1.486679373E+01  -9.799959835E+01   9.975488056E-05
   1.306400000E-02   9.967347999E+01  -2.747360853E+01  -9.800169428E+01   9.967324369E-05
   1.306500000E-02   9.965724171E+01  -2.984798491E+01  -9.801458552E+01   9.965700000E-05
   1.306600000E-02   9.965606092E+01  -2.988788305E+01  -9.802716868E+01   9.965582954E-05
   1.306700000E-02   9.965513799E+01  -2.988760497E+01  -9.803865775E+01   9.965489627E-05
   1.306800000E-02   9.965420176E+01  -2.988732478E+01  -9.804915095E+01   9.965396918E-05
   1.306900000E-02   9.965326342E+01  -2.988704442E+01  -9.805872879E+01   9.965302720E-05
   1.307000000E-02   9.974957676E+01  -1.492897513E+01  -9.806372829E+01   9.974933948E-05
   1.307100000E-02   9.984837340E+01  -9.981510249E-03  -9.803532056E+01   9.984813818E-05
   1.307200000E-02   9.982325894E+01  -4.178440124E+00  -9.801184187E+01   9.982302501E-05
   1.307300000E-02   9.975508691E+01  -1.487443134E+01  -9.799956997E+01   9.975484878E-05
   1.307400000E-02   9.967352417E+01  -2.746946758E+01  -9.800166588E+01   9.967328787E-05
   1.307500000E-02   9.965699142E+01  -2.988816073E+01  -9.801472157E+01   9.965675518E-05
   1.307600000E-02   9.965606898E+01  -2.988788432E+01  -9.802727514E+01   9.965583179E-05
   1.307700000E-02   9.965513949E+01  -2.988760618E+01  -9.803875586E+01   9.965490171E-05
   1.307800000E-02   9.965420893E+01  -2.988732617E+01  -9.804922639E+01   9.965397061E-05
   1.307900000E-02   9.965327196E+01  -2.988704586E+01  -9.805880173E+01   9.965303340E-05
   1.308000000E-02   9.974951084E+01  -1.494030000E+01  -9.806379157E+01   9.974927320E-05
   1.308100000E-02   9.984838185E+01  -9.981511262E-03  -9.803536322E+01   9.984814627E-05
   1.308200000E-02   9.982327088E+01  -4.177436695E+00  -9.801189563E+01   9.982303684E-05
   1.308300000E-02   9.975513112E+01  -1.486832444E+01  -9.799961486E+01   9.975489299E-05
   1.308400000E-02   9.967349241E+01  -2.747509986E+01  -9.800170799E+01   9.967325611E-05
   1.308500000E-02   9.965699349E+01  -2.988816253E+01  -9.801476246E+01   9.965675482E-05
   1.308600000E-02   9.965607575E+01  -2.988788634E+01  -9.802730200E+01   9.965583827E-05
   1.308700000E-02   9.965514763E+01  -2.988760824E+01  -9.803877384E+01   9.965490949E-05
   1.308800000E-02   9.965421634E+01  -2.988732801E+01  -9.804925177E+01   9.965397767E-05
   1.308900000E-02   9.965327922E+01  -2.988704605E+01  -9.805882188E+01   9.965304031E-05
   1.309000000E-02   9.974944061E+01  -1.495170009E+01  -9.806380910E+01   9.974920280E-05
   1.309100000E-02   9.984838553E+01  -9.981511344E-03  -9.803536774E+01   9.984814709E-05
   1.309200000E-02   9.982325655E+01  -4.180271398E+00  -9.801190244E+01   9.982302252E-05
   1.309300000E-02   9.975509933E+01  -1.487400752E+01  -9.799962691E+01   9.975486120E-05
   1.309400000E-02   9.967348722E+01  -2.747660646E+01  -9.800171893E+01   9.967325092E-05
   1.309500000E-02   9.965699680E+01  -2.988816349E+01  -9.801475951E+01   9.965676166E-05
   1.309600000E-02   9.965607462E+01  -2.988788715E+01  -9.802729716E+01   9.965583852E-05
   1.309700000E-02   9.965515152E+01  -2.988760906E+01  -9.803877256E+01   9.965491454E-05
   1.309800000E-02   9.965421624E+01  -2.988732911E+01  -9.804924176E+01   9.965397893E-05
   1.309900000E-02   9.965328422E+01  -2.988704879E+01  -9.805880750E+01   9.965304645E-05
   1.310000000E-02   9.974937018E+01  -1.496313115E+01  -9.806381137E+01   9.974913220E-05
   1.310100000E-02   9.984838916E+01  -9.981512162E-03  -9.803538268E+01   9.984815323E-05
   1.310200000E-02   9.982327877E+01  -4.177525401E+00  -9.801191420E+01   9.982304463E-05
   1.310300000E-02   9.975509035E+01  -1.487608753E+01  -9.799962601E+01   9.975485222E-05
   1.310400000E-02   9.967350482E+01  -2.747457276E+01  -9.800171407E+01   9.967326853E-05
   1.310500000E-02   9.965700066E+01  -2.988816427E+01  -9.801476828E+01   9.965676516E-05
   1.310600000E-02   9.965607915E+01  -2.988788813E+01  -9.802729912E+01   9.965584269E-05
   1.310700000E-02   9.965515622E+01  -2.988761008E+01  -9.803877028E+01   9.965491887E-05
   1.310800000E-02   9.965422088E+01  -2.988733012E+01  -9.804923634E+01   9.965398913E-05
   1.310900000E-02   9.965328198E+01  -2.988704960E+01  -9.805881259E+01   9.965305141E-05
   1.311000000E-02   9.974930446E+01  -1.497442410E+01  -9.806381362E+01   9.974906248E-05
   1.311100000E-02   9.984839761E+01  -9.981512244E-03  -9.803536431E+01   9.984815859E-05
   1.311200000E-02   9.982326673E+01  -4.180305138E+00  -9.801189812E+01   9.982303249E-05
   1.311300000E-02   9.975511176E+01  -1.487339683E+01  -9.799962054E+01   9.975487363E-05
   1.311400000E-02   9.967347306E+01  -2.748007521E+01  -9.800171306E+01   9.967323676E-05
   1.311500000E-02   9.965700879E+01  -2.988816633E+01  -9.801475347E+01   9.965677293E-05
   1.311600000E-02   9.965608658E+01  -2.988788997E+01  -9.802729415E+01   9.965584977E-05
   1.311700000E-02   9.965515728E+01  -2.988761188E+01  -9.803876704E+01   9.965491987E-05
   1.311800000E-02   9.965422672E+01  -2.988733192E+01  -9.804923272E+01   9.965398877E-05
   1.311900000E-02   9.965328995E+01  -2.988705006E+01  -9.805880150E+01   9.965305176E-05
   1.312000000E-02   9.974968197E+01  -1.491630562E+01  -9.806379443E+01   9.974944362E-05
   1.312100000E-02   9.984839647E+01  -9.981513061E-03  -9.803537163E+01   9.984816019E-05
   1.312200000E-02   9.982326267E+01  -4.181401622E+00  -9.801188809E+01   9.982302843E-05
   1.312300000E-02   9.975507998E+01  -1.487897547E+01  -9.799960970E+01   9.975484184E-05
   1.312400000E-02   9.967351724E+01  -2.747391587E+01  -9.800170489E+01   9.967328095E-05
   1.312500000E-02   9.965701184E+01  -2.988816724E+01  -9.801475030E+01   9.965677599E-05
   1.312600000E-02   9.965609036E+01  -2.988789111E+01  -9.802728169E+01   9.965585355E-05
   1.312700000E-02   9.965516055E+01  -2.988761285E+01  -9.803875943E+01   9.965492314E-05
   1.312800000E-02   9.965422982E+01  -2.988733285E+01  -9.804922894E+01   9.965399188E-05
   1.312900000E-02   9.965329308E+01  -2.988705254E+01  -9.805879447E+01   9.965305489E-05
   1.313000000E-02   9.974916449E+01  -1.499714907E+01  -9.806380288E+01   9.974892216E-05
   1.313100000E-02   9.984840492E+01  -9.981513143E-03  -9.803535611E+01   9.984816555E-05
   1.313200000E-02   9.982327462E+01  -4.180257710E+00  -9.801188616E+01   9.982304027E-05
   1.313300000E-02   9.975512419E+01  -1.487267410E+01  -9.799961187E+01   9.975488606E-05
   1.313400000E-02   9.967348548E+01  -2.747936300E+01  -9.800170389E+01   9.967324918E-05
   1.313500000E-02   9.965701656E+01  -2.988816828E+01  -9.801474382E+01   9.965678035E-05
   1.313600000E-02   9.965609435E+01  -2.988789192E+01  -9.802728464E+01   9.965585719E-05
   1.313700000E-02   9.965516505E+01  -2.988761383E+01  -9.803875769E+01   9.965492729E-05
   1.313800000E-02   9.965423449E+01  -2.988733387E+01  -9.804922352E+01   9.965399619E-05
   1.313900000E-02   9.965329773E+01  -2.988705356E+01  -9.805878624E+01   9.965305918E-05
   1.314000000E-02   9.974954200E+01  -1.493902963E+01  -9.806378750E+01   9.974930331E-05
   1.314100000E-02   9.984840451E+01  -9.981513452E-03  -9.803535856E+01   9.984816788E-05
   1.314200000E-02   9.982327057E+01  -4.181317008E+00  -9.801188377E+01   9.982303622E-05
   1.314300000E-02   9.975509240E+01  -1.487820109E+01  -9.799960333E+01   9.975485427E-05
   1.314400000E-02   9.967352966E+01  -2.747315218E+01  -9.800169572E+01   9.967329081E-05
   1.314500000E-02   9.965701620E+01  -2.988816888E+01  -9.801474136E+01   9.965677999E-05
   1.314600000E-02   9.965609469E+01  -2.988789203E+01  -9.802727246E+01   9.965585753E-05
   1.314700000E-02   9.965517106E+01  -2.988761377E+01  -9.803875249E+01   9.965493300E-05
   1.314800000E-02   9.965423555E+01  -2.988733531E+01  -9.804921990E+01   9.965400310E-05
   1.314900000E-02   9.965330356E+01  -2.988705380E+01  -9.805878847E+01   9.965306609E-05
   1.315000000E-02   9.974947577E+01  -1.495040146E+01  -9.806378595E+01   9.974923309E-05
   1.315100000E-02   9.984841222E+01  -9.981514042E-03  -9.803534982E+01   9.984817251E-05
   1.315200000E-02   9.982328252E+01  -4.180140512E+00  -9.801188184E+01   9.982304806E-05
   1.315300000E-02   9.975508341E+01  -1.488014977E+01  -9.799959479E+01   9.975484528E-05
   1.315400000E-02   9.967349790E+01  -2.747855353E+01  -9.800169204E+01   9.967325905E-05
   1.315500000E-02   9.965702347E+01  -2.988816997E+01  -9.801474174E+01   9.965678691E-05
   1.315600000E-02   9.965610196E+01  -2.988789383E+01  -9.802726965E+01   9.965586444E-05
   1.315700000E-02   9.965517282E+01  -2.988761578E+01  -9.803874072E+01   9.965493470E-05
   1.315800000E-02   9.965424226E+01  -2.988733582E+01  -9.804920670E+01   9.965400361E-05
   1.315900000E-02   9.965330479E+01  -2.988705529E+01  -9.805878287E+01   9.965306588E-05
   1.316000000E-02   9.974940204E+01  -1.496175364E+01  -9.806378058E+01   9.974916299E-05
   1.316100000E-02   9.984841305E+01  -9.981514124E-03  -9.803533145E+01   9.984817605E-05
   1.316200000E-02   9.982326818E+01  -4.182832014E+00  -9.801186576E+01   9.982303373E-05
   1.316300000E-02   9.975510483E+01  -1.487733296E+01  -9.799959466E+01   9.975486670E-05
   1.316400000E-02   9.967349272E+01  -2.747986009E+01  -9.800169269E+01   9.967325388E-05
   1.316500000E-02   9.965702397E+01  -2.988817202E+01  -9.801473171E+01   9.965678741E-05
   1.316600000E-02   9.965610246E+01  -2.988789433E+01  -9.802726295E+01   9.965586494E-05
   1.316700000E-02   9.965517883E+01  -2.988761727E+01  -9.803874315E+01   9.965494042E-05
   1.316800000E-02   9.965424332E+01  -2.988733762E+01  -9.804921070E+01   9.965401052E-05
   1.316900000E-02   9.965330513E+01  -2.988705575E+01  -9.805877321E+01   9.965307351E-05
   1.317000000E-02   9.974978337E+01  -1.490363515E+01  -9.806376139E+01   9.974954414E-05
   1.317100000E-02   9.984841953E+01  -9.981514360E-03  -9.803534163E+01   9.984817946E-05
   1.317200000E-02   9.982329042E+01  -4.179958257E+00  -9.801187522E+01   9.982305585E-05
   1.317300000E-02   9.975509585E+01  -1.487923421E+01  -9.799958842E+01   9.975485772E-05
   1.317400000E-02   9.967351032E+01  -2.747765565E+01  -9.800168287E+01   9.967327147E-05
   1.317500000E-02   9.965703124E+01  -2.988817192E+01  -9.801472924E+01   9.965679433E-05
   1.317600000E-02   9.965610973E+01  -2.988789577E+01  -9.802726014E+01   9.965587186E-05
   1.317700000E-02   9.965518059E+01  -2.988761773E+01  -9.803873137E+01   9.965494212E-05
   1.317800000E-02   9.965424933E+01  -2.988733756E+01  -9.804920529E+01   9.965401032E-05
   1.317900000E-02   9.965331240E+01  -2.988705720E+01  -9.805877545E+01   9.965307314E-05
   1.318000000E-02   9.974926207E+01  -1.498447766E+01  -9.806377747E+01   9.974902268E-05
   1.318100000E-02   9.984842035E+01  -9.981515023E-03  -9.803532802E+01   9.984818301E-05
   1.318200000E-02   9.982327608E+01  -4.182619377E+00  -9.801186143E+01   9.982304152E-05
   1.318300000E-02   9.975511726E+01  -1.487637668E+01  -9.799958829E+01   9.975487913E-05
   1.318400000E-02   9.967347856E+01  -2.748299337E+01  -9.800168186E+01   9.967323971E-05
   1.318500000E-02   9.965703174E+01  -2.988817278E+01  -9.801472206E+01   9.965679482E-05
   1.318600000E-02   9.965610953E+01  -2.988789572E+01  -9.802726280E+01   9.965587166E-05
   1.318700000E-02   9.965518023E+01  -2.988761762E+01  -9.803873576E+01   9.965494768E-05
   1.318800000E-02   9.965424967E+01  -2.988733921E+01  -9.804920151E+01   9.965401202E-05
   1.318900000E-02   9.965331291E+01  -2.988705770E+01  -9.805876415E+01   9.965307365E-05
   1.319000000E-02   9.974964340E+01  -1.492635916E+01  -9.806375828E+01   9.974940382E-05
   1.319100000E-02   9.984842208E+01  -9.981514909E-03  -9.803533534E+01   9.984818187E-05
   1.319200000E-02   9.982327202E+01  -4.183601711E+00  -9.801185141E+01   9.982303746E-05
   1.319300000E-02   9.975508547E+01  -1.488179288E+01  -9.799957745E+01   9.975484734E-05
   1.319400000E-02   9.967352273E+01  -2.747667444E+01  -9.800167369E+01   9.967328389E-05
   1.319500000E-02   9.965703423E+01  -2.988817387E+01  -9.801471960E+01   9.965679447E-05
   1.319600000E-02   9.965610987E+01  -2.988789772E+01  -9.802725062E+01   9.965587792E-05
   1.319700000E-02   9.965518694E+01  -2.988761968E+01  -9.803872203E+01   9.965494954E-05
   1.319800000E-02   9.965425089E+01  -2.988733951E+01  -9.804919610E+01   9.965401774E-05
   1.319900000E-02   9.965331874E+01  -2.988705915E+01  -9.805876638E+01   9.965308056E-05
   1.320000000E-02   9.974957373E+01  -1.493767083E+01  -9.806375671E+01   9.974933398E-05
   1.320100000E-02   9.984842766E+01  -9.981515341E-03  -9.803531982E+01   9.984818997E-05
   1.320200000E-02   9.982328397E+01  -4.182349713E+00  -9.801185482E+01   9.982304930E-05
   1.320300000E-02   9.975512968E+01  -1.487534000E+01  -9.799957657E+01   9.975489156E-05
   1.320400000E-02   9.967349097E+01  -2.748197276E+01  -9.800167269E+01   9.967325213E-05
   1.320500000E-02   9.965703897E+01  -2.988817457E+01  -9.801472015E+01   9.965680170E-05
   1.320600000E-02   9.965611714E+01  -2.988789762E+01  -9.802724923E+01   9.965587892E-05
   1.320700000E-02   9.965518800E+01  -2.988761957E+01  -9.803871879E+01   9.965494918E-05
   1.320800000E-02   9.965425744E+01  -2.988734116E+01  -9.804918468E+01   9.965401808E-05
   1.320900000E-02   9.965332068E+01  -2.988705965E+01  -9.805875366E+01   9.965308107E-05
   1.321000000E-02   9.974949961E+01  -1.494908318E+01  -9.806375517E+01   9.974925986E-05
   1.321100000E-02   9.984842848E+01  -9.981516005E-03  -9.803530622E+01   9.984819078E-05
   1.321200000E-02   9.982326963E+01  -4.184971094E+00  -9.801184102E+01   9.982303496E-05
   1.321300000E-02   9.975509790E+01  -1.488071953E+01  -9.799957107E+01   9.975485977E-05
   1.321400000E-02   9.967353515E+01  -2.747561761E+01  -9.800166451E+01   9.967329630E-05
   1.321500000E-02   9.965704256E+01  -2.988817493E+01  -9.801470925E+01   9.965680530E-05
   1.321600000E-02   9.965612038E+01  -2.988789859E+01  -9.802724397E+01   9.965588216E-05
   1.321700000E-02   9.965519111E+01  -2.988762050E+01  -9.803871935E+01   9.965495228E-05
   1.321800000E-02   9.965426054E+01  -2.988734209E+01  -9.804918236E+01   9.965402118E-05
   1.321900000E-02   9.965332381E+01  -2.988706060E+01  -9.805874663E+01   9.965308420E-05
   1.322000000E-02   9.974942926E+01  -1.496050103E+01  -9.806374981E+01   9.974918933E-05
   1.322100000E-02   9.984843020E+01  -9.981515891E-03  -9.803531640E+01   9.984818965E-05
   1.322200000E-02   9.982328958E+01  -4.182026060E+00  -9.801185049E+01   9.982305491E-05
   1.322300000E-02   9.975508891E+01  -1.488252365E+01  -9.799956483E+01   9.975485078E-05
   1.322400000E-02   9.967350339E+01  -2.748087901E+01  -9.800166847E+01   9.967326454E-05
   1.322500000E-02   9.965704220E+01  -2.988817673E+01  -9.801471150E+01   9.965680494E-05
   1.322600000E-02   9.965612072E+01  -2.988790060E+01  -9.802723947E+01   9.965588250E-05
   1.322700000E-02   9.965519091E+01  -2.988762234E+01  -9.803871557E+01   9.965495798E-05
   1.322800000E-02   9.965426018E+01  -2.988734234E+01  -9.804918491E+01   9.965402220E-05
   1.322900000E-02   9.965332344E+01  -2.988706203E+01  -9.805875029E+01   9.965308383E-05
   1.323000000E-02   9.974935965E+01  -1.497180625E+01  -9.806375206E+01   9.974911954E-05
   1.323100000E-02   9.984843579E+01  -9.981516322E-03  -9.803530279E+01   9.984819774E-05
   1.323200000E-02   9.982327753E+01  -4.184621666E+00  -9.801183670E+01   9.982304275E-05
   1.323300000E-02   9.975511033E+01  -1.487957122E+01  -9.799956470E+01   9.975487220E-05
   1.323400000E-02   9.967347163E+01  -2.748612514E+01  -9.800166480E+01   9.967323279E-05
   1.323500000E-02   9.965704474E+01  -2.988817663E+01  -9.801471193E+01   9.965680458E-05
   1.323600000E-02   9.965612036E+01  -2.988790049E+01  -9.802723665E+01   9.965588803E-05
   1.323700000E-02   9.965519742E+01  -2.988762245E+01  -9.803871001E+01   9.965495970E-05
   1.323800000E-02   9.965426214E+01  -2.988734250E+01  -9.804917316E+01   9.965402860E-05
   1.323900000E-02   9.965332942E+01  -2.988706197E+01  -9.805874466E+01   9.965309091E-05
   1.324000000E-02   9.974973715E+01  -1.491368774E+01  -9.806373287E+01   9.974949704E-05
   1.324100000E-02   9.984843465E+01  -9.981516790E-03  -9.803531297E+01   9.984819660E-05
   1.324200000E-02   9.982327347E+01  -4.185540982E+00  -9.801183202E+01   9.982303870E-05
   1.324300000E-02   9.975507854E+01  -1.488489734E+01  -9.799956149E+01   9.975484041E-05
   1.324400000E-02   9.967351581E+01  -2.747971851E+01  -9.800165929E+01   9.967327696E-05
   1.324500000E-02   9.965704997E+01  -2.988817750E+01  -9.801470185E+01   9.965681236E-05
   1.324600000E-02   9.965612849E+01  -2.988790064E+01  -9.802722996E+01   9.965588992E-05
   1.324700000E-02   9.965519868E+01  -2.988762239E+01  -9.803870622E+01   9.965495950E-05
   1.324800000E-02   9.965426795E+01  -2.988734393E+01  -9.804917571E+01   9.965402824E-05
   1.324900000E-02   9.965333121E+01  -2.988706244E+01  -9.805874123E+01   9.965309125E-05
   1.325000000E-02   9.974921585E+01  -1.499453027E+01  -9.806374895E+01   9.974897558E-05
   1.325100000E-02   9.984843833E+01  -9.981516872E-03  -9.803529936E+01   9.984819742E-05
   1.325200000E-02   9.982328313E+01  -4.184226942E+00  -9.801183237E+01   9.982304836E-05
   1.325300000E-02   9.975512275E+01  -1.487835822E+01  -9.799955832E+01   9.975488463E-05
   1.325400000E-02   9.967348405E+01  -2.748493154E+01  -9.800165562E+01   9.967324520E-05
   1.325500000E-02   9.965704961E+01  -2.988817857E+01  -9.801470229E+01   9.965681200E-05
   1.325600000E-02   9.965612813E+01  -2.988790244E+01  -9.802723332E+01   9.965588956E-05
   1.325700000E-02   9.965519902E+01  -2.988762439E+01  -9.803870212E+01   9.965496573E-05
   1.325800000E-02   9.965426846E+01  -2.988734445E+01  -9.804917014E+01   9.965403013E-05
   1.325900000E-02   9.965333101E+01  -2.988706392E+01  -9.805874323E+01   9.965309105E-05
   1.326000000E-02   9.974959719E+01  -1.493641176E+01  -9.806373357E+01   9.974935673E-05
   1.326100000E-02   9.984844269E+01  -9.981516831E-03  -9.803529990E+01   9.984820429E-05
   1.326200000E-02   9.982328137E+01  -4.185123740E+00  -9.801182770E+01   9.982304649E-05
   1.326300000E-02   9.975509097E+01  -1.488365367E+01  -9.799955512E+01   9.975485284E-05
   1.326400000E-02   9.967352823E+01  -2.747849507E+01  -9.800165012E+01   9.967328938E-05
   1.326500000E-02   9.965705011E+01  -2.988817872E+01  -9.801469511E+01   9.965681249E-05
   1.326600000E-02   9.965612793E+01  -2.988790238E+01  -9.802722977E+01   9.965588936E-05
   1.326700000E-02   9.965520484E+01  -2.988762429E+01  -9.803870505E+01   9.965496537E-05
   1.326800000E-02   9.965426955E+01  -2.988734434E+01  -9.804916797E+01   9.965403566E-05
   1.326900000E-02   9.965333136E+01  -2.988706402E+01  -9.805873217E+01   9.965309867E-05
   1.327000000E-02   9.974952341E+01  -1.494777039E+01  -9.806373202E+01   9.974928295E-05
   1.327100000E-02   9.984844278E+01  -9.981517189E-03  -9.803529593E+01   9.984820438E-05
   1.327200000E-02   9.982329104E+01  -4.183789288E+00  -9.801182805E+01   9.982305615E-05
   1.327300000E-02   9.975508197E+01  -1.488538192E+01  -9.799954658E+01   9.975484384E-05
   1.327400000E-02   9.967349646E+01  -2.748368073E+01  -9.800165408E+01   9.967325762E-05
   1.327500000E-02   9.965705738E+01  -2.988817934E+01  -9.801469737E+01   9.965681941E-05
   1.327600000E-02   9.965613590E+01  -2.988790248E+01  -9.802722526E+01   9.965589697E-05
   1.327700000E-02   9.965520679E+01  -2.988762444E+01  -9.803869277E+01   9.965496726E-05
   1.327800000E-02   9.965427553E+01  -2.988734582E+01  -9.804916870E+01   9.965403546E-05
   1.327900000E-02   9.965333862E+01  -2.988706428E+01  -9.805873583E+01   9.965309830E-05
   1.328000000E-02   9.974945341E+01  -1.495913483E+01  -9.806373047E+01   9.974921277E-05
   1.328100000E-02   9.984844646E+01  -9.981517271E-03  -9.803528041E+01   9.984820519E-05
   1.328200000E-02   9.982327668E+01  -4.186333214E+00  -9.801181731E+01   9.982304181E-05
   1.328300000E-02   9.975510339E+01  -1.488235397E+01  -9.799954874E+01   9.975486527E-05
   1.328400000E-02   9.967349128E+01  -2.748477979E+01  -9.800164709E+01   9.967325244E-05
   1.328500000E-02   9.965705735E+01  -2.988818051E+01  -9.801469311E+01   9.965681938E-05
   1.328600000E-02   9.965613554E+01  -2.988790428E+01  -9.802722244E+01   9.965589661E-05
   1.328700000E-02   9.965520643E+01  -2.988762624E+01  -9.803869571E+01   9.965496690E-05
   1.328800000E-02   9.965427587E+01  -2.988734629E+01  -9.804915878E+01   9.965403580E-05
   1.328900000E-02   9.965333913E+01  -2.988706597E+01  -9.805872311E+01   9.965309881E-05
   1.329000000E-02   9.974983093E+01  -1.490101632E+01  -9.806371509E+01   9.974959029E-05
   1.329100000E-02   9.984845009E+01  -9.981517739E-03  -9.803529537E+01   9.984820860E-05
   1.329200000E-02   9.982329894E+01  -4.183313402E+00  -9.801182906E+01   9.982306395E-05
   1.329300000E-02   9.975509441E+01  -1.488405371E+01  -9.799954783E+01   9.975485628E-05
   1.329400000E-02   9.967350888E+01  -2.748237652E+01  -9.800164490E+01   9.967327004E-05
   1.329500000E-02   9.965705752E+01  -2.988818057E+01  -9.801469063E+01   9.965681955E-05
   1.329600000E-02   9.965613604E+01  -2.988790443E+01  -9.802721575E+01   9.965589711E-05
   1.329700000E-02   9.965520623E+01  -2.988762618E+01  -9.803869192E+01   9.965497259E-05
   1.329800000E-02   9.965427550E+01  -2.988734618E+01  -9.804916133E+01   9.965403682E-05
   1.329900000E-02   9.965333876E+01  -2.988706586E+01  -9.805872677E+01   9.965310434E-05
   1.330000000E-02   9.974930963E+01  -1.498185885E+01  -9.806373117E+01   9.974906882E-05
   1.330100000E-02   9.984845091E+01  -9.981517821E-03  -9.803528176E+01   9.984821215E-05
   1.330200000E-02   9.982328458E+01  -4.185839164E+00  -9.801181527E+01   9.982304960E-05
   1.330300000E-02   9.975511582E+01  -1.488100101E+01  -9.799954236E+01   9.975487769E-05
   1.330400000E-02   9.967347712E+01  -2.748752344E+01  -9.800164886E+01   9.967323828E-05
   1.330500000E-02   9.965705717E+01  -2.988818118E+01  -9.801469289E+01   9.965681920E-05
   1.330600000E-02   9.965613568E+01  -2.988790432E+01  -9.802722056E+01   9.965589675E-05
   1.330700000E-02   9.965521275E+01  -2.988762628E+01  -9.803868782E+01   9.965497293E-05
   1.330800000E-02   9.965427746E+01  -2.988734787E+01  -9.804915576E+01   9.965404322E-05
   1.330900000E-02   9.965333856E+01  -2.988706617E+01  -9.805872877E+01   9.965310552E-05
   1.331000000E-02   9.974968714E+01  -1.492373939E+01  -9.806371579E+01   9.974944632E-05
   1.331100000E-02   9.984844977E+01  -9.981517707E-03  -9.803529194E+01   9.984821102E-05
   1.331200000E-02   9.982328052E+01  -4.186690571E+00  -9.801181059E+01   9.982304554E-05
   1.331300000E-02   9.975508404E+01  -1.488623131E+01  -9.799953916E+01   9.975484591E-05
   1.331400000E-02   9.967352130E+01  -2.748102272E+01  -9.800163572E+01   9.967328245E-05
   1.331500000E-02   9.965706057E+01  -2.988818251E+01  -9.801468098E+01   9.965682697E-05
   1.331600000E-02   9.965614166E+01  -2.988790617E+01  -9.802721556E+01   9.965590383E-05
   1.331700000E-02   9.965521384E+01  -2.988762808E+01  -9.803869075E+01   9.965497395E-05
   1.331800000E-02   9.965428327E+01  -2.988734813E+01  -9.804915358E+01   9.965404285E-05
   1.331900000E-02   9.965334654E+01  -2.988706627E+01  -9.805871771E+01   9.965310587E-05
   1.332000000E-02   9.974961756E+01  -1.493503879E+01  -9.806371423E+01   9.974937657E-05
   1.332100000E-02   9.984845059E+01  -9.981518138E-03  -9.803527833E+01   9.984821183E-05
   1.332200000E-02   9.982329020E+01  -4.185310897E+00  -9.801181095E+01   9.982305521E-05
   1.332300000E-02   9.975512825E+01  -1.487960009E+01  -9.799954133E+01   9.975489012E-05
   1.332400000E-02   9.967348954E+01  -2.748614732E+01  -9.800163968E+01   9.967325069E-05
   1.332500000E-02   9.965706184E+01  -2.988818219E+01  -9.801468508E+01   9.965682352E-05
   1.332600000E-02   9.965614001E+01  -2.988790524E+01  -9.802721751E+01   9.965590073E-05
   1.332700000E-02   9.965521708E+01  -2.988762719E+01  -9.803868847E+01   9.965497690E-05
   1.332800000E-02   9.965428174E+01  -2.988734879E+01  -9.804915435E+01   9.965404717E-05
   1.332900000E-02   9.965334355E+01  -2.988706728E+01  -9.805871711E+01   9.965311015E-05
   1.333000000E-02   9.974954336E+01  -1.494646341E+01  -9.806371650E+01   9.974930237E-05
   1.333100000E-02   9.984845427E+01  -9.981518220E-03  -9.803526758E+01   9.984821720E-05
   1.333200000E-02   9.982327584E+01  -4.187814015E+00  -9.801180250E+01   9.982304304E-05
   1.333300000E-02   9.975509646E+01  -1.488481074E+01  -9.799953278E+01   9.975485833E-05
   1.333400000E-02   9.967353372E+01  -2.747962562E+01  -9.800163418E+01   9.967329487E-05
   1.333500000E-02   9.965706202E+01  -2.988818344E+01  -9.801467966E+01   9.965682369E-05
   1.333600000E-02   9.965614051E+01  -2.988790730E+01  -9.802721081E+01   9.965590714E-05
   1.333700000E-02   9.965521688E+01  -2.988762904E+01  -9.803868469E+01   9.965497806E-05
   1.333800000E-02   9.965428137E+01  -2.988734903E+01  -9.804915072E+01   9.965404680E-05
   1.333900000E-02   9.965334939E+01  -2.988706717E+01  -9.805871934E+01   9.965310979E-05
   1.334000000E-02   9.974947309E+01  -1.495786900E+01  -9.806371114E+01   9.974923192E-05
   1.334100000E-02   9.984845790E+01  -9.981518688E-03  -9.803527777E+01   9.984821879E-05
   1.334200000E-02   9.982329810E+01  -4.184753774E+00  -9.801181196E+01   9.982306301E-05
   1.334300000E-02   9.975508747E+01  -1.488645441E+01  -9.799953188E+01   9.975484934E-05
   1.334400000E-02   9.967350196E+01  -2.748473058E+01  -9.800163546E+01   9.967326311E-05
   1.334500000E-02   9.965706929E+01  -2.988818333E+01  -9.801468483E+01   9.965683061E-05
   1.334600000E-02   9.965614778E+01  -2.988790719E+01  -9.802720942E+01   9.965590815E-05
   1.334700000E-02   9.965521864E+01  -2.988762914E+01  -9.803867912E+01   9.965497841E-05
   1.334800000E-02   9.965428808E+01  -2.988734918E+01  -9.804914515E+01   9.965404731E-05
   1.334900000E-02   9.965335061E+01  -2.988706866E+01  -9.805871516E+01   9.965310959E-05
   1.335000000E-02   9.974939958E+01  -1.496918648E+01  -9.806371339E+01   9.974915841E-05
   1.335100000E-02   9.984845872E+01  -9.981518770E-03  -9.803526416E+01   9.984821960E-05
   1.335200000E-02   9.982328374E+01  -4.187242361E+00  -9.801179817E+01   9.982304865E-05
   1.335300000E-02   9.975510889E+01  -1.488334850E+01  -9.799953175E+01   9.975487076E-05
   1.335400000E-02   9.967347020E+01  -2.748982466E+01  -9.800163446E+01   9.967323135E-05
   1.335500000E-02   9.965706979E+01  -2.988818348E+01  -9.801467287E+01   9.965683111E-05
   1.335600000E-02   9.965614758E+01  -2.988790713E+01  -9.802721067E+01   9.965590795E-05
   1.335700000E-02   9.965521828E+01  -2.988762903E+01  -9.803868351E+01   9.965497804E-05
   1.335800000E-02   9.965428772E+01  -2.988734908E+01  -9.804914916E+01   9.965404694E-05
   1.335900000E-02   9.965335096E+01  -2.988706876E+01  -9.805871171E+01   9.965310993E-05
   1.336000000E-02   9.974977708E+01  -1.491106701E+01  -9.806370183E+01   9.974953591E-05
   1.336100000E-02   9.984845757E+01  -9.981518656E-03  -9.803527910E+01   9.984821847E-05
   1.336200000E-02   9.982327968E+01  -4.188058015E+00  -9.801179578E+01   9.982304459E-05
   1.336300000E-02   9.975507711E+01  -1.488852715E+01  -9.799952854E+01   9.975483897E-05
   1.336400000E-02   9.967351437E+01  -2.748327436E+01  -9.800162896E+01   9.967327553E-05
   1.336500000E-02   9.965706943E+01  -2.988818409E+01  -9.801467518E+01   9.965683075E-05
   1.336600000E-02   9.965614792E+01  -2.988790723E+01  -9.802720612E+01   9.965590829E-05
   1.336700000E-02   9.965521879E+01  -2.988762918E+01  -9.803867121E+01   9.965498446E-05
   1.336800000E-02   9.965428752E+01  -2.988735057E+01  -9.804914375E+01   9.965404810E-05
   1.336900000E-02   9.965335059E+01  -2.988706901E+01  -9.805871394E+01   9.965310957E-05
   1.337000000E-02   9.974925578E+01  -1.499191051E+01  -9.806371411E+01   9.974901445E-05
   1.337100000E-02   9.984846126E+01  -9.981518738E-03  -9.803526359E+01   9.984821928E-05
   1.337200000E-02   9.982328936E+01  -4.186642861E+00  -9.801179919E+01   9.982305427E-05
   1.337300000E-02   9.975512132E+01  -1.488184768E+01  -9.799952766E+01   9.975488319E-05
   1.337400000E-02   9.967348261E+01  -2.748835003E+01  -9.800163291E+01   9.967324377E-05
   1.337500000E-02   9.965706993E+01  -2.988818543E+01  -9.801466800E+01   9.965683125E-05
   1.337600000E-02   9.965614772E+01  -2.988790908E+01  -9.802720258E+01   9.965590809E-05
   1.337700000E-02   9.965522463E+01  -2.988763098E+01  -9.803867417E+01   9.965498410E-05
   1.337800000E-02   9.965428929E+01  -2.988735103E+01  -9.804913996E+01   9.965405436E-05
   1.337900000E-02   9.965335110E+01  -2.988706916E+01  -9.805870265E+01   9.965311735E-05
   1.338000000E-02   9.974963331E+01  -1.493379103E+01  -9.806369872E+01   9.974939196E-05
   1.338100000E-02   9.984846012E+01  -9.981518624E-03  -9.803527854E+01   9.984822269E-05
   1.338200000E-02   9.982328530E+01  -4.187444999E+00  -9.801179680E+01   9.982305239E-05
   1.338300000E-02   9.975508953E+01  -1.488700754E+01  -9.799952445E+01   9.975485140E-05
   1.338400000E-02   9.967352679E+01  -2.748178190E+01  -9.800162473E+01   9.967328794E-05
   1.338500000E-02   9.965706957E+01  -2.988818532E+01  -9.801467316E+01   9.965683089E-05
   1.338600000E-02   9.965614806E+01  -2.988790918E+01  -9.802719803E+01   9.965591434E-05
   1.338700000E-02   9.965522513E+01  -2.988763113E+01  -9.803866806E+01   9.965498597E-05
   1.338800000E-02   9.965428909E+01  -2.988735097E+01  -9.804914218E+01   9.965405416E-05
   1.338900000E-02   9.965335073E+01  -2.988707060E+01  -9.805870631E+01   9.965311699E-05
   1.339000000E-02   9.974955961E+01  -1.494513740E+01  -9.806370098E+01   9.974932190E-05
   1.339100000E-02   9.984846570E+01  -9.981519056E-03  -9.803526493E+01   9.984822624E-05
   1.339200000E-02   9.982329726E+01  -4.186018202E+00  -9.801179715E+01   9.982306206E-05
   1.339300000E-02   9.975508054E+01  -1.488860735E+01  -9.799952126E+01   9.975484240E-05
   1.339400000E-02   9.967349503E+01  -2.748684040E+01  -9.800162374E+01   9.967325619E-05
   1.339500000E-02   9.965707239E+01  -2.988818531E+01  -9.801466893E+01   9.965683357E-05
   1.339600000E-02   9.965614770E+01  -2.988790907E+01  -9.802720142E+01   9.965591398E-05
   1.339700000E-02   9.965522477E+01  -2.988763102E+01  -9.803867245E+01   9.965498560E-05
   1.339800000E-02   9.965429563E+01  -2.988735107E+01  -9.804913840E+01   9.965405450E-05
   1.339900000E-02   9.965335816E+01  -2.988707054E+01  -9.805870833E+01   9.965311678E-05
   1.340000000E-02   9.974948952E+01  -1.495651410E+01  -9.806370324E+01   9.974924800E-05
   1.340100000E-02   9.984846652E+01  -9.981519720E-03  -9.803524941E+01   9.984822706E-05
   1.340200000E-02   9.982328290E+01  -4.188475182E+00  -9.801178641E+01   9.982304771E-05
   1.340300000E-02   9.975510196E+01  -1.488545465E+01  -9.799952342E+01   9.975486383E-05
   1.340400000E-02   9.967348985E+01  -2.748781837E+01  -9.800162438E+01   9.967325100E-05
   1.340500000E-02   9.965707734E+01  -2.988818537E+01  -9.801466636E+01   9.965683831E-05
   1.340600000E-02   9.965615583E+01  -2.988790922E+01  -9.802719472E+01   9.965591584E-05
   1.340700000E-02   9.965522599E+01  -2.988763096E+01  -9.803866867E+01   9.965498540E-05
   1.340800000E-02   9.965429527E+01  -2.988735096E+01  -9.804913477E+01   9.965405414E-05
   1.340900000E-02   9.965335851E+01  -2.988707065E+01  -9.805870345E+01   9.965311713E-05
   1.341000000E-02   9.974986703E+01  -1.489839463E+01  -9.806368786E+01   9.974962550E-05
   1.341100000E-02   9.984846538E+01  -9.981519605E-03  -9.803526437E+01   9.984822592E-05
   1.341200000E-02   9.982330287E+01  -4.185370069E+00  -9.801179816E+01   9.982306767E-05
   1.341300000E-02   9.975509298E+01  -1.488703591E+01  -9.799951717E+01   9.975485484E-05
   1.341400000E-02   9.967350745E+01  -2.748529835E+01  -9.800162219E+01   9.967326860E-05
   1.341500000E-02   9.965707515E+01  -2.988818547E+01  -9.801467089E+01   9.965683502E-05
   1.341600000E-02   9.965615343E+01  -2.988790928E+01  -9.802720175E+01   9.965591236E-05
   1.341700000E-02   9.965522336E+01  -2.988763096E+01  -9.803868142E+01   9.965498781E-05
   1.341800000E-02   9.965429266E+01  -2.988735251E+01  -9.804914580E+01   9.965405774E-05
   1.341900000E-02   9.965335569E+01  -2.988707090E+01  -9.805870691E+01   9.965312052E-05
   1.342000000E-02   9.974934193E+01  -1.497923813E+01  -9.806370013E+01   9.974910041E-05
   1.342100000E-02   9.984846620E+01  -9.981519687E-03  -9.803525361E+01   9.984822674E-05
   1.342200000E-02   9.982328851E+01  -4.187819155E+00  -9.801178971E+01   9.982305332E-05
   1.342300000E-02   9.975511439E+01  -1.488387358E+01  -9.799951933E+01   9.975487626E-05
   1.342400000E-02   9.967347569E+01  -2.749033710E+01  -9.800162615E+01   9.967323684E-05
   1.342500000E-02   9.965707748E+01  -2.988818732E+01  -9.801466149E+01   9.965683845E-05
   1.342600000E-02   9.965615527E+01  -2.988790941E+01  -9.802719600E+01   9.965591528E-05
   1.342700000E-02   9.965522597E+01  -2.988763251E+01  -9.803866749E+01   9.965499130E-05
   1.342800000E-02   9.965429541E+01  -2.988735291E+01  -9.804913321E+01   9.965405564E-05
   1.342900000E-02   9.965335865E+01  -2.988707105E+01  -9.805869582E+01   9.965311727E-05
   1.343000000E-02   9.974972326E+01  -1.492111865E+01  -9.806368857E+01   9.974948156E-05
   1.343100000E-02   9.984846506E+01  -9.981519573E-03  -9.803526570E+01   9.984822560E-05
   1.343200000E-02   9.982328445E+01  -4.188593513E+00  -9.801178198E+01   9.982304926E-05
   1.343300000E-02   9.975508260E+01  -1.488899458E+01  -9.799951384E+01   9.975484447E-05
   1.343400000E-02   9.967351987E+01  -2.748373084E+01  -9.800161797E+01   9.967328102E-05
   1.343500000E-02   9.965707712E+01  -2.988818721E+01  -9.801466666E+01   9.965683809E-05
   1.343600000E-02   9.965615561E+01  -2.988791107E+01  -9.802719145E+01   9.965591562E-05
   1.343700000E-02   9.965522648E+01  -2.988763302E+01  -9.803866139E+01   9.965499180E-05
   1.343800000E-02   9.965429521E+01  -2.988735285E+01  -9.804913542E+01   9.965405544E-05
   1.343900000E-02   9.965335828E+01  -2.988707094E+01  -9.805869948E+01   9.965312282E-05
   1.344000000E-02   9.974919813E+01  -1.500196120E+01  -9.806370466E+01   9.974895645E-05
   1.344100000E-02   9.984846874E+01  -9.981519655E-03  -9.803525496E+01   9.984822642E-05
   1.344200000E-02   9.982329413E+01  -4.187138991E+00  -9.801178768E+01   9.982305893E-05
   1.344300000E-02   9.975512681E+01  -1.488225951E+01  -9.799951829E+01   9.975488869E-05
   1.344400000E-02   9.967348811E+01  -2.748875052E+01  -9.800162193E+01   9.967324926E-05
   1.344500000E-02   9.965707709E+01  -2.988818720E+01  -9.801466721E+01   9.965683805E-05
   1.344600000E-02   9.965615525E+01  -2.988791096E+01  -9.802719626E+01   9.965591526E-05
   1.344700000E-02   9.965523232E+01  -2.988763291E+01  -9.803866578E+01   9.965499144E-05
   1.344800000E-02   9.965429698E+01  -2.988735295E+01  -9.804913164E+01   9.965406170E-05
   1.344900000E-02   9.965335879E+01  -2.988707264E+01  -9.805869438E+01   9.965312469E-05
   1.345000000E-02   9.974957566E+01  -1.494384173E+01  -9.806368928E+01   9.974933396E-05
   1.345100000E-02   9.984846956E+01  -9.981519737E-03  -9.803523944E+01   9.984823178E-05
   1.345200000E-02   9.982327977E+01  -4.189570620E+00  -9.801177694E+01   9.982304676E-05
   1.345300000E-02   9.975509503E+01  -1.488736701E+01  -9.799951509E+01   9.975485690E-05
   1.345400000E-02   9.967353228E+01  -2.748213091E+01  -9.800161147E+01   9.967329343E-05
   1.345500000E-02   9.965707726E+01  -2.988818725E+01  -9.801465986E+01   9.965683823E-05
   1.345600000E-02   9.965615575E+01  -2.988791111E+01  -9.802718814E+01   9.965592168E-05
   1.345700000E-02   9.965523212E+01  -2.988763285E+01  -9.803866200E+01   9.965499260E-05
   1.345800000E-02   9.965429662E+01  -2.988735284E+01  -9.804912802E+01   9.965406134E-05
   1.345900000E-02   9.965335843E+01  -2.988707253E+01  -9.805869662E+01   9.965312432E-05
   1.346000000E-02   9.974950165E+01  -1.495523506E+01  -9.806368773E+01   9.974926359E-05
   1.346100000E-02   9.984847319E+01  -9.981519623E-03  -9.803525439E+01   9.984823338E-05
   1.346200000E-02   9.982330203E+01  -4.186440379E+00  -9.801178869E+01   9.982306673E-05
   1.346300000E-02   9.975508604E+01  -1.488891466E+01  -9.799950884E+01   9.975484791E-05
   1.346400000E-02   9.967350052E+01  -2.748713914E+01  -9.800161542E+01   9.967326168E-05
   1.346500000E-02   9.965707975E+01  -2.988818714E+01  -9.801466502E+01   9.965684059E-05
   1.346600000E-02   9.965615540E+01  -2.988791100E+01  -9.802719296E+01   9.965592132E-05
   1.346700000E-02   9.965523246E+01  -2.988763295E+01  -9.803865786E+01   9.965499294E-05
   1.346800000E-02   9.965429712E+01  -2.988735299E+01  -9.804912245E+01   9.965406184E-05
   1.346900000E-02   9.965336443E+01  -2.988707247E+01  -9.805869244E+01   9.965312412E-05
   1.347000000E-02   9.974943188E+01  -1.496656480E+01  -9.806368998E+01   9.974919001E-05
   1.347100000E-02   9.984847401E+01  -9.981520054E-03  -9.803524364E+01   9.984823419E-05
   1.347200000E-02   9.982328767E+01  -4.188863422E+00  -9.801178024E+01   9.982305237E-05
   1.347300000E-02   9.975510746E+01  -1.488571332E+01  -9.799951100E+01   9.975486933E-05
   1.347400000E-02   9.967349535E+01  -2.748806852E+01  -9.800161607E+01   9.967325650E-05
   1.347500000E-02   9.965708026E+01  -2.988818729E+01  -9.801465499E+01   9.965684565E-05
   1.347600000E-02   9.965616210E+01  -2.988791115E+01  -9.802718006E+01   9.965592318E-05
   1.347700000E-02   9.965523369E+01  -2.988763289E+01  -9.803865886E+01   9.965499274E-05
   1.347800000E-02   9.965430296E+01  -2.988735444E+01  -9.804912645E+01   9.965406148E-05
   1.347900000E-02   9.965336620E+01  -2.988707293E+01  -9.805868898E+01   9.965312447E-05
   1.348000000E-02   9.974980938E+01  -1.490844627E+01  -9.806367842E+01   9.974956750E-05
   1.348100000E-02   9.984847287E+01  -9.981519941E-03  -9.803525573E+01   9.984823306E-05
   1.348200000E-02   9.982328361E+01  -4.189615983E+00  -9.801177251E+01   9.982304831E-05
   1.348300000E-02   9.975507567E+01  -1.489080337E+01  -9.799950551E+01   9.975483754E-05
   1.348400000E-02   9.967351294E+01  -2.748550364E+01  -9.800161388E+01   9.967327409E-05
   1.348500000E-02   9.965708468E+01  -2.988818790E+01  -9.801466015E+01   9.965684529E-05
   1.348600000E-02   9.965616317E+01  -2.988791104E+01  -9.802718487E+01   9.965592282E-05
   1.348700000E-02   9.965523403E+01  -2.988763299E+01  -9.803865472E+01   9.965499308E-05
   1.348800000E-02   9.965430276E+01  -2.988735438E+01  -9.804912867E+01   9.965406128E-05
   1.348900000E-02   9.965336583E+01  -2.988707282E+01  -9.805869264E+01   9.965312410E-05
   1.349000000E-02   9.974928428E+01  -1.498928883E+01  -9.806369450E+01   9.974904241E-05
   1.349100000E-02   9.984847369E+01  -9.981520605E-03  -9.803524498E+01   9.984823387E-05
   1.349200000E-02   9.982329329E+01  -4.188139451E+00  -9.801177821E+01   9.982305798E-05
   1.349300000E-02   9.975511988E+01  -1.488403646E+01  -9.799950997E+01   9.975488176E-05
   1.349400000E-02   9.967348118E+01  -2.749049593E+01  -9.800161516E+01   9.967324234E-05
   1.349500000E-02   9.965708517E+01  -2.988818924E+01  -9.801465297E+01   9.965684578E-05
   1.349600000E-02   9.965616297E+01  -2.988791134E+01  -9.802718753E+01   9.965592262E-05
   1.349700000E-02   9.965523367E+01  -2.988763444E+01  -9.803865911E+01   9.965499272E-05
   1.349800000E-02   9.965430310E+01  -2.988735484E+01  -9.804912488E+01   9.965406162E-05
   1.349900000E-02   9.965336634E+01  -2.988707297E+01  -9.805868755E+01   9.965312461E-05
   1.350000000E-02   9.974966179E+01  -1.493116935E+01  -9.806368294E+01   9.974941991E-05
   1.350100000E-02   9.984847255E+01  -9.981520490E-03  -9.803525517E+01   9.984823274E-05
   1.350200000E-02   9.982328923E+01  -4.188883496E+00  -9.801177353E+01   9.982305393E-05
   1.350300000E-02   9.975508810E+01  -1.488911520E+01  -9.799950676E+01   9.975484997E-05
   1.350400000E-02   9.967352536E+01  -2.748384649E+01  -9.800160965E+01   9.967328651E-05
   1.350500000E-02   9.965708482E+01  -2.988818913E+01  -9.801465813E+01   9.965684543E-05
   1.350600000E-02   9.965616331E+01  -2.988791299E+01  -9.802718299E+01   9.965592296E-05
   1.350700000E-02   9.965523417E+01  -2.988763494E+01  -9.803865300E+01   9.965499323E-05
   1.350800000E-02   9.965430290E+01  -2.988735478E+01  -9.804912090E+01   9.965406142E-05
   1.350900000E-02   9.965336598E+01  -2.988707286E+01  -9.805868979E+01   9.965312424E-05
   1.351000000E-02   9.974958817E+01  -1.494250346E+01  -9.806368138E+01   9.974934993E-05
   1.351100000E-02   9.984847337E+01  -9.981520573E-03  -9.803524442E+01   9.984823355E-05
   1.351200000E-02   9.982329890E+01  -4.187400383E+00  -9.801177922E+01   9.982306360E-05
   1.351300000E-02   9.975513231E+01  -1.488233981E+01  -9.799951122E+01   9.975489418E-05
   1.351400000E-02   9.967349360E+01  -2.748882800E+01  -9.800161362E+01   9.967325475E-05
   1.351500000E-02   9.965708478E+01  -2.988818912E+01  -9.801465391E+01   9.965684539E-05
   1.351600000E-02   9.965616295E+01  -2.988791288E+01  -9.802718638E+01   9.965592260E-05
   1.351700000E-02   9.965523381E+01  -2.988763483E+01  -9.803865739E+01   9.965499878E-05
   1.351800000E-02   9.965430325E+01  -2.988735488E+01  -9.804911712E+01   9.965406313E-05
   1.351900000E-02   9.965336577E+01  -2.988707435E+01  -9.805869182E+01   9.965312404E-05
   1.352000000E-02   9.974951801E+01  -1.495389242E+01  -9.806367983E+01   9.974927596E-05
   1.352100000E-02   9.984847705E+01  -9.981520655E-03  -9.803523367E+01   9.984823437E-05
   1.352200000E-02   9.982328454E+01  -4.189804661E+00  -9.801177077E+01   9.982304924E-05
   1.352300000E-02   9.975510053E+01  -1.488740739E+01  -9.799950801E+01   9.975486240E-05
   1.352400000E-02   9.967348841E+01  -2.748973323E+01  -9.800160930E+01   9.967324957E-05
   1.352500000E-02   9.965708495E+01  -2.988818918E+01  -9.801465134E+01   9.965684557E-05
   1.352600000E-02   9.965616345E+01  -2.988791303E+01  -9.802717968E+01   9.965592310E-05
   1.352700000E-02   9.965523361E+01  -2.988763477E+01  -9.803865361E+01   9.965499858E-05
   1.352800000E-02   9.965430288E+01  -2.988735477E+01  -9.804911969E+01   9.965406276E-05
   1.352900000E-02   9.965336612E+01  -2.988707446E+01  -9.805868215E+01   9.965313030E-05
   1.353000000E-02   9.974944370E+01  -1.496533271E+01  -9.806368211E+01   9.974920165E-05
   1.353100000E-02   9.984847591E+01  -9.981520540E-03  -9.803524862E+01   9.984823324E-05
   1.353200000E-02   9.982330452E+01  -4.186646897E+00  -9.801178252E+01   9.982306921E-05
   1.353300000E-02   9.975509154E+01  -1.488891595E+01  -9.799950177E+01   9.975485341E-05
   1.353400000E-02   9.967350601E+01  -2.748714157E+01  -9.800160711E+01   9.967326717E-05
   1.353500000E-02   9.965708460E+01  -2.988818907E+01  -9.801465650E+01   9.965684521E-05
   1.353600000E-02   9.965616309E+01  -2.988791293E+01  -9.802718449E+01   9.965592274E-05
   1.353700000E-02   9.965524015E+01  -2.988763488E+01  -9.803864947E+01   9.965499892E-05
   1.353800000E-02   9.965430482E+01  -2.988735492E+01  -9.804911412E+01   9.965406918E-05
   1.353900000E-02   9.965336592E+01  -2.988707440E+01  -9.805868418E+01   9.965313146E-05
   1.354000000E-02   9.974937041E+01  -1.497661550E+01  -9.806368435E+01   9.974912836E-05
   1.354100000E-02   9.984847673E+01  -9.981520623E-03  -9.803523501E+01   9.984823860E-05
   1.354200000E-02   9.982329016E+01  -4.189044903E+00  -9.801177407E+01   9.982305704E-05
   1.354300000E-02   9.975511295E+01  -1.488568051E+01  -9.799950393E+01   9.975487482E-05
   1.354400000E-02   9.967347425E+01  -2.749210782E+01  -9.800161107E+01   9.967323541E-05
   1.354500000E-02   9.965708509E+01  -2.988818922E+01  -9.801464647E+01   9.965684571E-05
   1.354600000E-02   9.965616289E+01  -2.988791287E+01  -9.802718716E+01   9.965592254E-05
   1.354700000E-02   9.965523979E+01  -2.988763477E+01  -9.803865386E+01   9.965499856E-05
   1.354800000E-02   9.965430445E+01  -2.988735481E+01  -9.804911813E+01   9.965406882E-05
   1.354900000E-02   9.965336626E+01  -2.988707450E+01  -9.805868072E+01   9.965313181E-05
   1.355000000E-02   9.974974793E+01  -1.491849601E+01  -9.806367279E+01   9.974950587E-05
   1.355100000E-02   9.984848036E+01  -9.981520508E-03  -9.803524996E+01   9.984823746E-05
   1.355200000E-02   9.982328838E+01  -4.189772802E+00  -9.801176634E+01   9.982305297E-05
   1.355300000E-02   9.975508117E+01  -1.489073607E+01  -9.799949843E+01   9.975484304E-05
   1.355400000E-02   9.967351843E+01  -2.748543607E+01  -9.800160556E+01   9.967327958E-05
   1.355500000E-02   9.965708474E+01  -2.988818911E+01  -9.801465163E+01   9.965684535E-05
   1.355600000E-02   9.965616323E+01  -2.988791297E+01  -9.802717641E+01   9.965592880E-05
   1.355700000E-02   9.965524029E+01  -2.988763492E+01  -9.803864633E+01   9.965500042E-05
   1.355800000E-02   9.965430425E+01  -2.988735475E+01  -9.804912035E+01   9.965406862E-05
   1.355900000E-02   9.965336590E+01  -2.988707439E+01  -9.805868438E+01   9.965313144E-05
   1.356000000E-02   9.974922281E+01  -1.499933857E+01  -9.806368887E+01   9.974898441E-05
   1.356100000E-02   9.984848118E+01  -9.981520590E-03  -9.803523921E+01   9.984824101E-05
   1.356200000E-02   9.982329806E+01  -4.188273066E+00  -9.801177204E+01   9.982306265E-05
   1.356300000E-02   9.975512538E+01  -1.488393646E+01  -9.799950289E+01   9.975488725E-05
   1.356400000E-02   9.967348667E+01  -2.749039536E+01  -9.800160952E+01   9.967324783E-05
   1.356500000E-02   9.965708755E+01  -2.988818910E+01  -9.801465218E+01   9.965684531E-05
   1.356600000E-02   9.965616287E+01  -2.988791286E+01  -9.802718122E+01   9.965592844E-05
   1.356700000E-02   9.965523993E+01  -2.988763481E+01  -9.803865072E+01   9.965500006E-05
   1.356800000E-02   9.965430459E+01  -2.988735640E+01  -9.804911656E+01   9.965406896E-05
   1.356900000E-02   9.965337260E+01  -2.988707490E+01  -9.805867929E+01   9.965313195E-05
   1.357000000E-02   9.974960414E+01  -1.494122004E+01  -9.806367731E+01   9.974936191E-05
   1.357100000E-02   9.984848200E+01  -9.981520673E-03  -9.803522369E+01   9.984824182E-05
   1.357200000E-02   9.982328370E+01  -4.190662532E+00  -9.801176130E+01   9.982304829E-05
   1.357300000E-02   9.975509359E+01  -1.488898425E+01  -9.799949969E+01   9.975485546E-05
   1.357400000E-02   9.967353085E+01  -2.748371599E+01  -9.800160134E+01   9.967329200E-05
   1.357500000E-02   9.965708773E+01  -2.988818987E+01  -9.801464961E+01   9.965684821E-05
   1.357600000E-02   9.965616957E+01  -2.988791301E+01  -9.802717453E+01   9.965592894E-05
   1.357700000E-02   9.965524116E+01  -2.988763475E+01  -9.803865315E+01   9.965499986E-05
   1.357800000E-02   9.965431043E+01  -2.988735630E+01  -9.804912057E+01   9.965406860E-05
   1.357900000E-02   9.965337367E+01  -2.988707479E+01  -9.805868295E+01   9.965313158E-05
   1.358000000E-02   9.974953022E+01  -1.495260111E+01  -9.806367576E+01   9.974928799E-05
   1.358100000E-02   9.984848086E+01  -9.981520558E-03  -9.803523865E+01   9.984824069E-05
   1.358200000E-02   9.982330368E+01  -4.187489826E+00  -9.801177305E+01   9.982306827E-05
   1.358300000E-02   9.975508460E+01  -1.489047283E+01  -9.799949878E+01   9.975484647E-05
   1.358400000E-02   9.967349909E+01  -2.748866697E+01  -9.800160530E+01   9.967326024E-05
   1.358500000E-02   9.965708737E+01  -2.988818976E+01  -9.801465478E+01   9.965685241E-05
   1.358600000E-02   9.965616921E+01  -2.988791290E+01  -9.802717934E+01   9.965592994E-05
   1.358700000E-02   9.965524150E+01  -2.988763485E+01  -9.803864900E+01   9.965500020E-05
   1.358800000E-02   9.965431094E+01  -2.988735645E+01  -9.804910880E+01   9.965406910E-05
   1.358900000E-02   9.965337347E+01  -2.988707473E+01  -9.805868355E+01   9.965313138E-05
   1.359000000E-02   9.974945655E+01  -1.496394312E+01  -9.806367802E+01   9.974921432E-05
   1.359100000E-02   9.984848168E+01  -9.981520640E-03  -9.803522790E+01   9.984824150E-05
   1.359200000E-02   9.982328931E+01  -4.189874007E+00  -9.801176460E+01   9.982305391E-05
   1.359300000E-02   9.975510602E+01  -1.488721569E+01  -9.799950094E+01   9.975486789E-05
   1.359400000E-02   9.967349391E+01  -2.748954202E+01  -9.800160595E+01   9.967325507E-05
   1.359500000E-02   9.965709265E+01  -2.988819110E+01  -9.801464759E+01   9.965685291E-05
   1.359600000E-02   9.965617114E+01  -2.988791341E+01  -9.802717265E+01   9.965593044E-05
   1.359700000E-02   9.965524130E+01  -2.988763634E+01  -9.803865143E+01   9.965500000E-05
   1.359800000E-02   9.965431058E+01  -2.988735670E+01  -9.804911280E+01   9.965406874E-05
   1.359900000E-02   9.965337381E+01  -2.988707483E+01  -9.805868009E+01   9.965313173E-05
   1.360000000E-02   9.974983405E+01  -1.490582363E+01  -9.806366264E+01   9.974959182E-05
   1.360100000E-02   9.984848054E+01  -9.981520876E-03  -9.803524285E+01   9.984824037E-05
   1.360200000E-02   9.982330929E+01  -4.186696192E+00  -9.801177635E+01   9.982307388E-05
   1.360300000E-02   9.975509704E+01  -1.488869632E+01  -9.799950003E+01   9.975485891E-05
   1.360400000E-02   9.967351151E+01  -2.748692524E+01  -9.800160375E+01   9.967327266E-05
   1.360500000E-02   9.965709229E+01  -2.988819100E+01  -9.801464798E+01   9.965685255E-05
   1.360600000E-02   9.965617078E+01  -2.988791485E+01  -9.802717603E+01   9.965593008E-05
   1.360700000E-02   9.965524164E+01  -2.988763680E+01  -9.803864729E+01   9.965500034E-05
   1.360800000E-02   9.965431037E+01  -2.988735663E+01  -9.804911501E+01   9.965406854E-05
   1.360900000E-02   9.965337345E+01  -2.988707472E+01  -9.805868376E+01   9.965313136E-05
   1.361000000E-02   9.974930895E+01  -1.498666620E+01  -9.806367872E+01   9.974906673E-05
   1.361100000E-02   9.984848136E+01  -9.981520957E-03  -9.803523210E+01   9.984824119E-05
   1.361200000E-02   9.982329493E+01  -4.189075751E+00  -9.801176791E+01   9.982305952E-05
   1.361300000E-02   9.975511845E+01  -1.488543497E+01  -9.799950219E+01   9.975488032E-05
   1.361400000E-02   9.967347975E+01  -2.749186602E+01  -9.800160771E+01   9.967324090E-05
   1.361500000E-02   9.965709278E+01  -2.988819114E+01  -9.801464080E+01   9.965685304E-05
   1.361600000E-02   9.965617058E+01  -2.988791479E+01  -9.802717870E+01   9.965592988E-05
   1.361700000E-02   9.965524128E+01  -2.988763669E+01  -9.803864547E+01   9.965499998E-05
   1.361800000E-02   9.965431072E+01  -2.988735674E+01  -9.804910981E+01   9.965406888E-05
   1.361900000E-02   9.965337395E+01  -2.988707487E+01  -9.805867246E+01   9.965313187E-05
   1.362000000E-02   9.974968646E+01  -1.492854671E+01  -9.806366716E+01   9.974944423E-05
   1.362100000E-02   9.984848022E+01  -9.981520844E-03  -9.803524419E+01   9.984824005E-05
   1.362200000E-02   9.982329087E+01  -4.189784978E+00  -9.801176552E+01   9.982305546E-05
   1.362300000E-02   9.975508666E+01  -1.489046397E+01  -9.799949899E+01   9.975484853E-05
   1.362400000E-02   9.967352392E+01  -2.748516824E+01  -9.800159725E+01   9.967328508E-05
   1.362500000E-02   9.965709243E+01  -2.988819104E+01  -9.801464596E+01   9.965685269E-05
   1.362600000E-02   9.965617092E+01  -2.988791489E+01  -9.802717415E+01   9.965593022E-05
   1.362700000E-02   9.965524178E+01  -2.988763685E+01  -9.803863937E+01   9.965500048E-05
   1.362800000E-02   9.965431052E+01  -2.988735668E+01  -9.804911202E+01   9.965406868E-05
   1.362900000E-02   9.965337359E+01  -2.988707632E+01  -9.805867612E+01   9.965313150E-05
   1.363000000E-02   9.974961292E+01  -1.493986856E+01  -9.806366941E+01   9.974937069E-05
   1.363100000E-02   9.984848104E+01  -9.981520926E-03  -9.803523344E+01   9.984824087E-05
   1.363200000E-02   9.982330054E+01  -4.188268104E+00  -9.801177121E+01   9.982306513E-05
   1.363300000E-02   9.975513087E+01  -1.488364091E+01  -9.799949811E+01   9.975489275E-05
   1.363400000E-02   9.967349216E+01  -2.749010397E+01  -9.800160121E+01   9.967325332E-05
   1.363500000E-02   9.965709239E+01  -2.988819103E+01  -9.801464651E+01   9.965685265E-05
   1.363600000E-02   9.965617056E+01  -2.988791479E+01  -9.802717897E+01   9.965592986E-05
   1.363700000E-02   9.965524142E+01  -2.988763674E+01  -9.803864376E+01   9.965500012E-05
   1.363800000E-02   9.965431086E+01  -2.988735678E+01  -9.804910824E+01   9.965406902E-05
   1.363900000E-02   9.965337339E+01  -2.988707626E+01  -9.805867815E+01   9.965313130E-05
   1.364000000E-02   9.974953886E+01  -1.495126979E+01  -9.806367168E+01   9.974929664E-05
   1.364100000E-02   9.984848186E+01  -9.981521007E-03  -9.803522270E+01   9.984824168E-05
   1.364200000E-02   9.982328618E+01  -4.190641092E+00  -9.801175742E+01   9.982305077E-05
   1.364300000E-02   9.975509909E+01  -1.488866418E+01  -9.799949261E+01   9.975486096E-05
   1.364400000E-02   9.967348697E+01  -2.749096383E+01  -9.800160185E+01   9.967324813E-05
   1.364500000E-02   9.965709257E+01  -2.988819108E+01  -9.801464394E+01   9.965685283E-05
   1.364600000E-02   9.965617106E+01  -2.988791494E+01  -9.802717227E+01   9.965593036E-05
   1.364700000E-02   9.965524122E+01  -2.988763668E+01  -9.803864618E+01   9.965500584E-05
   1.364800000E-02   9.965431050E+01  -2.988735667E+01  -9.804911225E+01   9.965407002E-05
   1.364900000E-02   9.965337373E+01  -2.988707636E+01  -9.805867469E+01   9.965313165E-05
   1.365000000E-02   9.974946845E+01  -1.496269782E+01  -9.806367396E+01   9.974922605E-05
   1.365100000E-02   9.984848072E+01  -9.981521475E-03  -9.803523764E+01   9.984824055E-05
   1.365200000E-02   9.982330616E+01  -4.187452074E+00  -9.801176917E+01   9.982307075E-05
   1.365300000E-02   9.975509010E+01  -1.489013042E+01  -9.799949171E+01   9.975485197E-05
   1.365400000E-02   9.967350458E+01  -2.748832981E+01  -9.800159966E+01   9.967326573E-05
   1.365500000E-02   9.965709221E+01  -2.988819097E+01  -9.801464625E+01   9.965685247E-05
   1.365600000E-02   9.965617070E+01  -2.988791483E+01  -9.802717088E+01   9.965593000E-05
   1.365700000E-02   9.965524156E+01  -2.988763678E+01  -9.803864061E+01   9.965500618E-05
   1.365800000E-02   9.965431100E+01  -2.988735682E+01  -9.804910667E+01   9.965407053E-05
   1.365900000E-02   9.965337353E+01  -2.988707630E+01  -9.805867671E+01   9.965313144E-05
   1.366000000E-02   9.974939508E+01  -1.497399286E+01  -9.806367620E+01   9.974915268E-05
   1.366100000E-02   9.984848440E+01  -9.981521558E-03  -9.803522690E+01   9.984824136E-05
   1.366200000E-02   9.982329180E+01  -4.189821098E+00  -9.801176072E+01   9.982305639E-05
   1.366300000E-02   9.975511152E+01  -1.488685281E+01  -9.799949386E+01   9.975487339E-05
   1.366400000E-02   9.967347282E+01  -2.749325723E+01  -9.800160362E+01   9.967323398E-05
   1.366500000E-02   9.965709271E+01  -2.988819112E+01  -9.801463907E+01   9.965685297E-05
   1.366600000E-02   9.965617050E+01  -2.988791477E+01  -9.802717354E+01   9.965592980E-05
   1.366700000E-02   9.965524120E+01  -2.988763667E+01  -9.803864500E+01   9.965500582E-05
   1.366800000E-02   9.965431064E+01  -2.988735671E+01  -9.804911068E+01   9.965407016E-05
   1.366900000E-02   9.965337387E+01  -2.988707640E+01  -9.805867326E+01   9.965313179E-05
   1.367000000E-02   9.974977260E+01  -1.491587338E+01  -9.806366464E+01   9.974953019E-05
   1.367100000E-02   9.984848326E+01  -9.981521443E-03  -9.803523708E+01   9.984824023E-05
   1.367200000E-02   9.982328773E+01  -4.190521159E+00  -9.801175604E+01   9.982305233E-05
   1.367300000E-02   9.975507973E+01  -1.489186831E+01  -9.799949066E+01   9.975484160E-05
   1.367400000E-02   9.967351700E+01  -2.748654611E+01  -9.800159811E+01   9.967327815E-05
   1.367500000E-02   9.965709235E+01  -2.988819101E+01  -9.801464423E+01   9.965685261E-05
   1.367600000E-02   9.965617084E+01  -2.988791487E+01  -9.802716900E+01   9.965593014E-05
   1.367700000E-02   9.965524170E+01  -2.988763682E+01  -9.803863890E+01   9.965500632E-05
   1.367800000E-02   9.965431044E+01  -2.988735665E+01  -9.804911290E+01   9.965406996E-05
   1.367900000E-02   9.965337351E+01  -2.988707629E+01  -9.805867692E+01   9.965313142E-05
   1.368000000E-02   9.974924748E+01  -1.499671594E+01  -9.806368072E+01   9.974900508E-05
   1.368100000E-02   9.984848408E+01  -9.981521525E-03  -9.803522633E+01   9.984824104E-05
   1.368200000E-02   9.982329741E+01  -4.188994056E+00  -9.801176174E+01   9.982306200E-05
   1.368300000E-02   9.975512394E+01  -1.488503175E+01  -9.799949512E+01   9.975488582E-05
   1.368400000E-02   9.967348524E+01  -2.749146781E+01  -9.800160207E+01   9.967324639E-05
   1.368500000E-02   9.965709285E+01  -2.988819116E+01  -9.801463705E+01   9.965685311E-05
   1.368600000E-02   9.965617064E+01  -2.988791481E+01  -9.802717166E+01   9.965592994E-05
   1.368700000E-02   9.965524134E+01  -2.988763671E+01  -9.803864329E+01   9.965500596E-05
   1.368800000E-02   9.965431078E+01  -2.988735676E+01  -9.804910911E+01   9.965407031E-05
   1.368900000E-02   9.965337402E+01  -2.988707644E+01  -9.805867183E+01   9.965313785E-05
   1.369000000E-02   9.974962500E+01  -1.493859645E+01  -9.806366534E+01   9.974938259E-05
   1.369100000E-02   9.984848367E+01  -9.981521485E-03  -9.803523164E+01   9.984824064E-05
   1.369200000E-02   9.982329335E+01  -4.189689936E+00  -9.801175935E+01   9.982305794E-05
   1.369300000E-02   9.975509216E+01  -1.489004182E+01  -9.799949191E+01   9.975485403E-05
   1.369400000E-02   9.967352942E+01  -2.748475221E+01  -9.800159656E+01   9.967329057E-05
   1.369500000E-02   9.965709249E+01  -2.988819106E+01  -9.801464222E+01   9.965685275E-05
   1.369600000E-02   9.965617098E+01  -2.988791491E+01  -9.802716711E+01   9.965593028E-05
   1.369700000E-02   9.965524735E+01  -2.988763665E+01  -9.803864572E+01   9.965500576E-05
   1.369800000E-02   9.965431184E+01  -2.988735665E+01  -9.804911312E+01   9.965406994E-05
   1.369900000E-02   9.965337365E+01  -2.988707633E+01  -9.805867549E+01   9.965313748E-05
   1.370000000E-02   9.974955115E+01  -1.494996526E+01  -9.806366761E+01   9.974930875E-05
   1.370100000E-02   9.984848376E+01  -9.981521493E-03  -9.803523053E+01   9.984824073E-05
   1.370200000E-02   9.982330303E+01  -4.188160305E+00  -9.801176504E+01   9.982306762E-05
   1.370300000E-02   9.975508317E+01  -1.489149599E+01  -9.799949101E+01   9.975484503E-05
   1.370400000E-02   9.967349766E+01  -2.748966885E+01  -9.800159785E+01   9.967325881E-05
   1.370500000E-02   9.965709213E+01  -2.988819095E+01  -9.801464738E+01   9.965685239E-05
   1.370600000E-02   9.965617062E+01  -2.988791481E+01  -9.802717193E+01   9.965592992E-05
   1.370700000E-02   9.965524769E+01  -2.988763676E+01  -9.803864157E+01   9.965500610E-05
   1.370800000E-02   9.965431235E+01  -2.988735835E+01  -9.804910135E+01   9.965407636E-05
   1.370900000E-02   9.965337345E+01  -2.988707663E+01  -9.805867609E+01   9.965313864E-05
   1.371000000E-02   9.974947740E+01  -1.496132048E+01  -9.806366987E+01   9.974923500E-05
   1.371100000E-02   9.984848457E+01  -9.981521575E-03  -9.803521978E+01   9.984824609E-05
   1.371200000E-02   9.982328866E+01  -4.190520767E+00  -9.801175659E+01   9.982305544E-05
   1.371300000E-02   9.975510459E+01  -1.488820565E+01  -9.799949316E+01   9.975486646E-05
   1.371400000E-02   9.967349248E+01  -2.749051189E+01  -9.800159850E+01   9.967325363E-05
   1.371500000E-02   9.965709263E+01  -2.988819110E+01  -9.801464020E+01   9.965685289E-05
   1.371600000E-02   9.965617112E+01  -2.988791496E+01  -9.802716523E+01   9.965593043E-05
   1.371700000E-02   9.965524749E+01  -2.988763670E+01  -9.803864400E+01   9.965500590E-05
   1.371800000E-02   9.965431198E+01  -2.988735824E+01  -9.804910535E+01   9.965407600E-05
   1.371900000E-02   9.965337379E+01  -2.988707673E+01  -9.805867263E+01   9.965313899E-05
   1.372000000E-02   9.974985492E+01  -1.490320099E+01  -9.806365449E+01   9.974961251E-05
   1.372100000E-02   9.984848820E+01  -9.981521461E-03  -9.803523474E+01   9.984824495E-05
   1.372200000E-02   9.982331094E+01  -4.187320184E+00  -9.801176834E+01   9.982307542E-05
   1.372300000E-02   9.975509560E+01  -1.488965420E+01  -9.799949226E+01   9.975485747E-05
   1.372400000E-02   9.967351007E+01  -2.748786227E+01  -9.800159630E+01   9.967327123E-05
   1.372500000E-02   9.965709227E+01  -2.988819170E+01  -9.801464536E+01   9.965685253E-05
   1.372600000E-02   9.965617076E+01  -2.988791485E+01  -9.802717005E+01   9.965593007E-05
   1.372700000E-02   9.965524783E+01  -2.988763680E+01  -9.803863985E+01   9.965500624E-05
   1.372800000E-02   9.965431178E+01  -2.988735818E+01  -9.804910757E+01   9.965407580E-05
   1.372900000E-02   9.965337343E+01  -2.988707662E+01  -9.805867629E+01   9.965313862E-05
   1.373000000E-02   9.974932980E+01  -1.498404356E+01  -9.806367057E+01   9.974908740E-05
   1.373100000E-02   9.984848902E+01  -9.981521543E-03  -9.803522399E+01   9.984824577E-05
   1.373200000E-02   9.982329657E+01  -4.189678007E+00  -9.801175989E+01   9.982306105E-05
   1.373300000E-02   9.975511701E+01  -1.488636184E+01  -9.799949442E+01   9.975487889E-05
   1.373400000E-02   9.967347831E+01  -2.749277443E+01  -9.800160026E+01   9.967323947E-05
   1.373500000E-02   9.965709277E+01  -2.988819185E+01  -9.801463818E+01   9.965685303E-05
   1.373600000E-02   9.965617056E+01  -2.988791479E+01  -9.802717271E+01   9.965592987E-05
   1.373700000E-02   9.965524747E+01  -2.988763669E+01  -9.803864424E+01   9.965500588E-05
   1.373800000E-02   9.965431213E+01  -2.988735828E+01  -9.804910378E+01   9.965407614E-05
   1.373900000E-02   9.965337394E+01  -2.988707678E+01  -9.805867120E+01   9.965313913E-05
   1.374000000E-02   9.974970732E+01  -1.492592407E+01  -9.806365901E+01   9.974946491E-05
   1.374100000E-02   9.984848788E+01  -9.981521429E-03  -9.803523894E+01   9.984824463E-05
   1.374200000E-02   9.982329251E+01  -4.190366715E+00  -9.801175750E+01   9.982305699E-05
   1.374300000E-02   9.975508523E+01  -1.489136194E+01  -9.799949121E+01   9.975484710E-05
   1.374400000E-02   9.967352249E+01  -2.748604739E+01  -9.800159475E+01   9.967328364E-05
   1.374500000E-02   9.965709241E+01  -2.988819175E+01  -9.801464334E+01   9.965685267E-05
   1.374600000E-02   9.965617090E+01  -2.988791489E+01  -9.802716816E+01   9.965593612E-05
   1.374700000E-02   9.965524797E+01  -2.988763684E+01  -9.803863814E+01   9.965500774E-05
   1.374800000E-02   9.965431193E+01  -2.988735822E+01  -9.804910600E+01   9.965407594E-05
   1.374900000E-02   9.965337357E+01  -2.988707667E+01  -9.805866866E+01   9.965313876E-05
   1.375000000E-02   9.974963767E+01  -1.493723366E+01  -9.806366126E+01   9.974939509E-05
   1.375100000E-02   9.984848870E+01  -9.981521511E-03  -9.803522819E+01   9.984824818E-05
   1.375200000E-02   9.982330219E+01  -4.188829879E+00  -9.801176320E+01   9.982306667E-05
   1.375300000E-02   9.975512944E+01  -1.488451042E+01  -9.799949567E+01   9.975489131E-05
   1.375400000E-02   9.967349073E+01  -2.749095574E+01  -9.800159871E+01   9.967325189E-05
   1.375500000E-02   9.965709522E+01  -2.988819173E+01  -9.801464389E+01   9.965685263E-05
   1.375600000E-02   9.965617054E+01  -2.988791478E+01  -9.802717298E+01   9.965593576E-05
   1.375700000E-02   9.965524761E+01  -2.988763673E+01  -9.803863632E+01   9.965500738E-05
   1.375800000E-02   9.965431227E+01  -2.988735833E+01  -9.804910079E+01   9.965407628E-05
   1.375900000E-02   9.965338028E+01  -2.988707682E+01  -9.805866356E+01   9.965313927E-05
   1.376000000E-02   9.974956354E+01  -1.494864715E+01  -9.806366353E+01   9.974932096E-05
   1.376100000E-02   9.984848952E+01  -9.981521593E-03  -9.803521458E+01   9.984824899E-05
   1.376200000E-02   9.982328782E+01  -4.191183758E+00  -9.801175475E+01   9.982304721E-05
   1.376300000E-02   9.975509766E+01  -1.488950670E+01  -9.799949247E+01   9.975485734E-05
   1.376400000E-02   9.967353491E+01  -2.748422555E+01  -9.800159320E+01   9.967329606E-05
   1.376500000E-02   9.965709540E+01  -2.988819298E+01  -9.801463655E+01   9.965685281E-05
   1.376600000E-02   9.965617104E+01  -2.988791529E+01  -9.802716485E+01   9.965593626E-05
   1.376700000E-02   9.965524741E+01  -2.988763822E+01  -9.803863875E+01   9.965500718E-05
   1.376800000E-02   9.965431190E+01  -2.988735857E+01  -9.804910480E+01   9.965407592E-05
   1.376900000E-02   9.965337992E+01  -2.988707671E+01  -9.805866723E+01   9.965313891E-05
   1.377000000E-02   9.974948939E+01  -1.496006292E+01  -9.806366580E+01   9.974924681E-05
   1.377100000E-02   9.984848838E+01  -9.981521479E-03  -9.803522953E+01   9.984824786E-05
   1.377200000E-02   9.982330780E+01  -4.187976387E+00  -9.801176650E+01   9.982306720E-05
   1.377300000E-02   9.975508867E+01  -1.489094672E+01  -9.799949156E+01   9.975484835E-05
   1.377400000E-02   9.967350315E+01  -2.748913008E+01  -9.800159716E+01   9.967326430E-05
   1.377500000E-02   9.965709504E+01  -2.988819287E+01  -9.801464170E+01   9.965685245E-05
   1.377600000E-02   9.965617068E+01  -2.988791673E+01  -9.802716967E+01   9.965593590E-05
   1.377700000E-02   9.965524775E+01  -2.988763868E+01  -9.803863461E+01   9.965500752E-05
   1.377800000E-02   9.965431861E+01  -2.988735873E+01  -9.804909923E+01   9.965407642E-05
   1.377900000E-02   9.965338114E+01  -2.988707665E+01  -9.805866925E+01   9.965313870E-05
   1.378000000E-02   9.974941594E+01  -1.497137023E+01  -9.806366805E+01   9.974917336E-05
   1.378100000E-02   9.984848920E+01  -9.981521561E-03  -9.803521878E+01   9.984824868E-05
   1.378200000E-02   9.982329344E+01  -4.190328288E+00  -9.801175805E+01   9.982305283E-05
   1.378300000E-02   9.975511008E+01  -1.488764411E+01  -9.799949372E+01   9.975486977E-05
   1.378400000E-02   9.967347139E+01  -2.749403270E+01  -9.800160113E+01   9.967323254E-05
   1.378500000E-02   9.965709555E+01  -2.988819302E+01  -9.801463453E+01   9.965685295E-05
   1.378600000E-02   9.965617669E+01  -2.988791667E+01  -9.802717234E+01   9.965593571E-05
   1.378700000E-02   9.965524881E+01  -2.988763857E+01  -9.803863899E+01   9.965500716E-05
   1.378800000E-02   9.965431825E+01  -2.988735862E+01  -9.804910323E+01   9.965407606E-05
   1.378900000E-02   9.965338149E+01  -2.988707675E+01  -9.805866579E+01   9.965313905E-05
   1.379000000E-02   9.974979345E+01  -1.491325074E+01  -9.806365649E+01   9.974955086E-05
   1.379100000E-02   9.984848806E+01  -9.981521447E-03  -9.803523373E+01   9.984824754E-05
   1.379200000E-02   9.982328937E+01  -4.191011152E+00  -9.801175566E+01   9.982304876E-05
   1.379300000E-02   9.975507830E+01  -1.489263615E+01  -9.799948517E+01   9.975483798E-05
   1.379400000E-02   9.967351556E+01  -2.748729870E+01  -9.800159561E+01   9.967327672E-05
   1.379500000E-02   9.965709518E+01  -2.988819292E+01  -9.801463969E+01   9.965685531E-05
   1.379600000E-02   9.965617703E+01  -2.988791677E+01  -9.802716779E+01   9.965593604E-05
   1.379700000E-02   9.965524932E+01  -2.988763872E+01  -9.803863289E+01   9.965500767E-05
   1.379800000E-02   9.965431805E+01  -2.988735856E+01  -9.804910545E+01   9.965407586E-05
   1.379900000E-02   9.965338112E+01  -2.988707664E+01  -9.805866945E+01   9.965313868E-05
   1.380000000E-02   9.974926835E+01  -1.499409331E+01  -9.806367257E+01   9.974902577E-05
   1.380100000E-02   9.984848888E+01  -9.981521529E-03  -9.803522298E+01   9.984824836E-05
   1.380200000E-02   9.982329905E+01  -4.189467788E+00  -9.801175602E+01   9.982305845E-05
   1.380300000E-02   9.975512251E+01  -1.488577537E+01  -9.799948734E+01   9.975488220E-05
   1.380400000E-02   9.967348380E+01  -2.749219818E+01  -9.800159462E+01   9.967324496E-05
   1.380500000E-02   9.965710046E+01  -2.988819307E+01  -9.801463251E+01   9.965685582E-05
   1.380600000E-02   9.965617825E+01  -2.988791671E+01  -9.802717045E+01   9.965593585E-05
   1.380700000E-02   9.965524896E+01  -2.988763862E+01  -9.803863728E+01   9.965500730E-05
   1.380800000E-02   9.965431839E+01  -2.988735866E+01  -9.804910167E+01   9.965407620E-05
   1.380900000E-02   9.965338163E+01  -2.988707680E+01  -9.805866436E+01   9.965313919E-05
   1.381000000E-02   9.974964585E+01  -1.493597382E+01  -9.806366101E+01   9.974940327E-05
   1.381100000E-02   9.984848848E+01  -9.981521489E-03  -9.803522829E+01   9.984824795E-05
   1.381200000E-02   9.982329499E+01  -4.190148138E+00  -9.801175363E+01   9.982305439E-05
   1.381300000E-02   9.975509072E+01  -1.489076403E+01  -9.799948414E+01   9.975485041E-05
   1.381400000E-02   9.967352798E+01  -2.748546093E+01  -9.800158911E+01   9.967328913E-05
   1.381500000E-02   9.965710010E+01  -2.988819296E+01  -9.801463767E+01   9.965685545E-05
   1.381600000E-02   9.965617859E+01  -2.988791682E+01  -9.802716590E+01   9.965593618E-05
   1.381700000E-02   9.965524875E+01  -2.988763856E+01  -9.803863971E+01   9.965500710E-05
   1.381800000E-02   9.965431803E+01  -2.988735855E+01  -9.804910567E+01   9.965407584E-05
   1.381900000E-02   9.965338126E+01  -2.988707669E+01  -9.805866802E+01   9.965313883E-05
   1.382000000E-02   9.974957209E+01  -1.494733037E+01  -9.806366327E+01   9.974932951E-05
   1.382100000E-02   9.984848856E+01  -9.981521497E-03  -9.803522719E+01   9.984824804E-05
   1.382200000E-02   9.982330467E+01  -4.188603931E+00  -9.801175932E+01   9.982306406E-05
   1.382300000E-02   9.975508173E+01  -1.489219891E+01  -9.799948323E+01   9.975484142E-05
   1.382400000E-02   9.967349622E+01  -2.749035783E+01  -9.800159307E+01   9.967325738E-05
   1.382500000E-02   9.965709975E+01  -2.988819285E+01  -9.801464283E+01   9.965685509E-05
   1.382600000E-02   9.965617823E+01  -2.988791671E+01  -9.802717072E+01   9.965593583E-05
   1.382700000E-02   9.965524910E+01  -2.988763866E+01  -9.803863557E+01   9.965500744E-05
   1.382800000E-02   9.965431853E+01  -2.988735870E+01  -9.804910010E+01   9.965407635E-05
   1.382900000E-02   9.965338106E+01  -2.988707818E+01  -9.805867005E+01   9.965313862E-05
   1.383000000E-02   9.974949826E+01  -1.495869689E+01  -9.806366553E+01   9.974925568E-05
   1.383100000E-02   9.984848938E+01  -9.981521579E-03  -9.803521644E+01   9.984824885E-05
   1.383200000E-02   9.982329030E+01  -4.190950561E+00  -9.801175087E+01   9.982304970E-05
[...]
   2.478400000E-02   1.003484655E+02  -3.009554070E+01  -9.689022864E+01   4.211618064E+01
   2.478500000E-02   1.003509467E+02  -3.009628439E+01  -9.688553540E+01   4.210722545E+01
   2.478600000E-02   1.003534257E+02  -3.009702941E+01  -9.688083912E+01   4.209837854E+01
   2.478700000E-02   1.003559132E+02  -3.009777464E+01  -9.687613976E+01   4.208962819E+01
   2.478800000E-02   1.003583959E+02  -3.009851874E+01  -9.687144619E+01   4.208099396E+01
   2.478900000E-02   1.003608748E+02  -3.009926243E+01  -9.686674989E+01   4.207247517E+01
   2.479000000E-02   1.003633533E+02  -3.010000598E+01  -9.686205753E+01   4.206405972E+01
   2.479100000E-02   1.003658334E+02  -3.010075001E+01  -9.685736440E+01   4.205576708E+01
   2.479200000E-02   1.003683117E+02  -3.010149349E+01  -9.685266942E+01   4.204758604E+01
   2.479300000E-02   1.003707906E+02  -3.010223718E+01  -9.684797618E+01   4.203951220E+01
   2.479400000E-02   1.003732696E+02  -3.010298086E+01  -9.684327990E+01   4.203155009E+01
   2.479500000E-02   1.003757518E+02  -3.010372552E+01  -9.683858053E+01   4.202369102E+01
   2.479600000E-02   1.003782321E+02  -3.010446829E+01  -9.683388162E+01   4.201595505E+01
   2.479700000E-02   1.003807111E+02  -3.010521140E+01  -9.682918838E+01   4.200833630E+01
   2.479800000E-02   1.003831847E+02  -3.010595376E+01  -9.682449743E+01   4.200083347E+01
   2.479900000E-02   1.003856614E+02  -3.010669687E+01  -9.681980115E+01   4.199344616E+01
   2.480000000E-02   1.003881422E+02  -3.010743920E+01  -9.681510441E+01   4.198616061E+01
   2.480100000E-02   1.003906124E+02  -3.010818135E+01  -9.681041564E+01   4.197901690E+01
   2.480200000E-02   1.003930885E+02  -3.010892375E+01  -9.680571989E+01   4.197197439E+01
   2.480300000E-02   1.003955666E+02  -3.010966595E+01  -9.680102632E+01   4.196504856E+01
   2.480400000E-02   1.003980402E+02  -3.011040773E+01  -9.679633537E+01   4.195824369E+01
   2.480500000E-02   1.004005115E+02  -3.011114951E+01  -9.679164442E+01   4.195155703E+01
   2.480600000E-02   1.004029828E+02  -3.011189129E+01  -9.678695347E+01   4.194498856E+01
   2.480700000E-02   1.004054542E+02  -3.011263307E+01  -9.678226252E+01   4.193853829E+01
   2.480800000E-02   1.004079255E+02  -3.011337351E+01  -9.677757157E+01   4.193220623E+01
   2.480900000E-02   1.004103968E+02  -3.011411472E+01  -9.677288062E+01   4.192599236E+01
   2.481000000E-02   1.004128677E+02  -3.011485553E+01  -9.676818618E+01   4.191988568E+01
   2.481100000E-02   1.004153360E+02  -3.011559639E+01  -9.676349958E+01   4.191391340E+01
   2.481200000E-02   1.004178024E+02  -3.011633629E+01  -9.675880666E+01   4.190805672E+01
   2.481300000E-02   1.004202715E+02  -3.011707617E+01  -9.675412105E+01   4.190231586E+01
   2.481400000E-02   1.004227375E+02  -3.011781604E+01  -9.674943239E+01   4.189669588E+01
   2.481500000E-02   1.004252012E+02  -3.011855591E+01  -9.674474678E+01   4.189119523E+01
   2.481600000E-02   1.004276702E+02  -3.011929445E+01  -9.674006346E+01   4.188581012E+01
   2.481700000E-02   1.004301362E+02  -3.012003375E+01  -9.673538014E+01   4.188054473E+01
   2.481800000E-02   1.004325978E+02  -3.012077325E+01  -9.673069071E+01   4.187539202E+01
   2.481900000E-02   1.004350606E+02  -3.012151297E+01  -9.672600477E+01   4.187036153E+01
   2.482000000E-02   1.004375231E+02  -3.012225061E+01  -9.672132461E+01   4.186544577E+01
   2.482100000E-02   1.004399822E+02  -3.012298939E+01  -9.671664388E+01   4.186066346E+01
   2.482200000E-02   1.004424440E+02  -3.012372610E+01  -9.671196243E+01   4.185599280E+01
   2.482300000E-02   1.004449024E+02  -3.012446350E+01  -9.670728445E+01   4.185143682E+01
   2.482400000E-02   1.004473638E+02  -3.012520147E+01  -9.670260342E+01   4.184700019E+01
   2.482500000E-02   1.004498222E+02  -3.012593810E+01  -9.669792543E+01   4.184267909E+01
   2.482600000E-02   1.004522815E+02  -3.012667512E+01  -9.669324364E+01   4.183846960E+01
   2.482700000E-02   1.004547389E+02  -3.012741292E+01  -9.668856533E+01   4.183438164E+01
   2.482800000E-02   1.004571896E+02  -3.012814956E+01  -9.668388964E+01   4.183040887E+01
   2.482900000E-02   1.004596434E+02  -3.012888428E+01  -9.667921928E+01   4.182655467E+01
   2.483000000E-02   1.004620983E+02  -3.012962089E+01  -9.667454316E+01   4.182280372E+01
   2.483100000E-02   1.004645504E+02  -3.013035589E+01  -9.666987536E+01   4.181919044E+01
   2.483200000E-02   1.004669987E+02  -3.013109055E+01  -9.666520745E+01   4.181568528E+01
   2.483300000E-02   1.004694503E+02  -3.013182566E+01  -9.666053329E+01   4.181228653E+01
   2.483400000E-02   1.004719002E+02  -3.013256023E+01  -9.665586262E+01   4.180900490E+01
   2.483500000E-02   1.004743486E+02  -3.013329438E+01  -9.665119455E+01   4.180583685E+01
   2.483600000E-02   1.004767970E+02  -3.013402853E+01  -9.664652649E+01   4.180278204E+01
   2.483700000E-02   1.004792455E+02  -3.013476268E+01  -9.664186376E+01   4.179983896E+01
   2.483800000E-02   1.004816886E+02  -3.013549550E+01  -9.663720332E+01   4.179700911E+01
   2.483900000E-02   1.004841294E+02  -3.013622908E+01  -9.663254288E+01   4.179429098E+01
   2.484000000E-02   1.004865797E+02  -3.013696187E+01  -9.662787668E+01   4.179167006E+01
   2.484100000E-02   1.004890222E+02  -3.013769535E+01  -9.662321584E+01   4.178918032E+01
   2.484200000E-02   1.004914641E+02  -3.013842776E+01  -9.661855288E+01   4.178679298E+01
   2.484300000E-02   1.004939049E+02  -3.013915867E+01  -9.661389779E+01   4.178451354E+01
   2.484400000E-02   1.004963404E+02  -3.013989034E+01  -9.660924497E+01   4.178234200E+01
   2.484500000E-02   1.004987789E+02  -3.014062125E+01  -9.660459216E+01   4.178027989E+01
   2.484600000E-02   1.005012144E+02  -3.014135159E+01  -9.659993935E+01   4.177832301E+01
   2.484700000E-02   1.005036476E+02  -3.014208193E+01  -9.659528654E+01   4.177647175E+01
   2.484800000E-02   1.005060861E+02  -3.014281227E+01  -9.659063373E+01   4.177472725E+01
   2.484900000E-02   1.005085247E+02  -3.014354356E+01  -9.658598019E+01   4.177308474E+01
   2.485000000E-02   1.005109565E+02  -3.014427303E+01  -9.658133557E+01   4.177153924E+01
   2.485100000E-02   1.005133844E+02  -3.014500272E+01  -9.657668860E+01   4.177011704E+01
   2.485200000E-02   1.005158180E+02  -3.014573174E+01  -9.657204204E+01   4.176878852E+01
   2.485300000E-02   1.005182459E+02  -3.014646017E+01  -9.656740219E+01   4.176756009E+01
   2.485400000E-02   1.005206715E+02  -3.014718861E+01  -9.656276464E+01   4.176643194E+01
   2.485500000E-02   1.005230970E+02  -3.014791570E+01  -9.655812175E+01   4.176540560E+01
   2.485600000E-02   1.005255226E+02  -3.014864356E+01  -9.655348189E+01   4.176447687E+01
   2.485700000E-02   1.005279513E+02  -3.014937161E+01  -9.654884363E+01   4.176364775E+01
   2.485800000E-02   1.005303782E+02  -3.015009854E+01  -9.654420577E+01   4.176291703E+01
   2.485900000E-02   1.005327985E+02  -3.015082507E+01  -9.653957356E+01   4.176228207E+01
   2.486000000E-02   1.005352205E+02  -3.015155012E+01  -9.653494373E+01   4.176173603E+01
   2.486100000E-02   1.005376415E+02  -3.015227698E+01  -9.653031069E+01   4.176129866E+01
   2.486200000E-02   1.005400599E+02  -3.015300140E+01  -9.652568377E+01   4.176095293E+01
   2.486300000E-02   1.005424778E+02  -3.015372735E+01  -9.652105918E+01   4.176069659E+01
   2.486400000E-02   1.005448989E+02  -3.015445349E+01  -9.651642550E+01   4.176053158E+01
   2.486500000E-02   1.005473129E+02  -3.015517718E+01  -9.651179833E+01   4.176046102E+01
   2.486600000E-02   1.005497285E+02  -3.015590122E+01  -9.650718137E+01   4.176048052E+01
   2.486700000E-02   1.005521411E+02  -3.015662584E+01  -9.650256136E+01   4.176058771E+01
   2.486800000E-02   1.005545514E+02  -3.015734912E+01  -9.649794440E+01   4.176078260E+01
   2.486900000E-02   1.005569617E+02  -3.015807184E+01  -9.649332439E+01   4.176106785E+01
   2.487000000E-02   1.005593761E+02  -3.015879451E+01  -9.648871161E+01   4.176143271E+01
   2.487100000E-02   1.005617825E+02  -3.015951570E+01  -9.648409908E+01   4.176189538E+01
   2.487200000E-02   1.005641905E+02  -3.016023900E+01  -9.647947968E+01   4.176243833E+01
   2.487300000E-02   1.005665945E+02  -3.016096078E+01  -9.647486778E+01   4.176306455E+01
   2.487400000E-02   1.005690025E+02  -3.016168159E+01  -9.647026073E+01   4.176377281E+01
   2.487500000E-02   1.005714075E+02  -3.016240239E+01  -9.646565368E+01   4.176456114E+01
   2.487600000E-02   1.005738102E+02  -3.016312320E+01  -9.646105198E+01   4.176543220E+01
   2.487700000E-02   1.005762075E+02  -3.016384400E+01  -9.645644722E+01   4.176638182E+01
   2.487800000E-02   1.005786079E+02  -3.016456347E+01  -9.645184551E+01   4.176741035E+01
   2.487900000E-02   1.005810052E+02  -3.016528237E+01  -9.644724609E+01   4.176851629E+01
   2.488000000E-02   1.005834074E+02  -3.016600199E+01  -9.644264783E+01   4.176969289E+01
   2.488100000E-02   1.005857994E+02  -3.016672092E+01  -9.643804710E+01   4.177095708E+01
   2.488200000E-02   1.005881949E+02  -3.016743907E+01  -9.643345224E+01   4.177229419E+01
   2.488300000E-02   1.005905899E+02  -3.016815739E+01  -9.642886045E+01   4.177369996E+01
   2.488400000E-02   1.005929850E+02  -3.016887495E+01  -9.642426865E+01   4.177517703E+01
   2.488500000E-02   1.005953747E+02  -3.016959194E+01  -9.641968220E+01   4.177672655E+01
   2.488600000E-02   1.005977675E+02  -3.017030894E+01  -9.641509804E+01   4.177834851E+01
   2.488700000E-02   1.006001572E+02  -3.017102593E+01  -9.641051387E+01   4.178003758E+01
   2.488800000E-02   1.006025477E+02  -3.017174252E+01  -9.640592373E+01   4.178179646E+01
   2.488900000E-02   1.006049365E+02  -3.017245800E+01  -9.640134235E+01   4.178362009E+01
   2.489000000E-02   1.006073189E+02  -3.017317295E+01  -9.639675904E+01   4.178550529E+01
   2.489100000E-02   1.006097055E+02  -3.017388837E+01  -9.639218037E+01   4.178746602E+01
   2.489200000E-02   1.006120858E+02  -3.017460325E+01  -9.638761045E+01   4.178948457E+01
   2.489300000E-02   1.006144656E+02  -3.017531700E+01  -9.638303620E+01   4.179156649E+01
   2.489400000E-02   1.006168454E+02  -3.017603151E+01  -9.637846500E+01   4.179371056E+01
   2.489500000E-02   1.006192252E+02  -3.017674526E+01  -9.637389609E+01   4.179591297E+01
   2.489600000E-02   1.006216081E+02  -3.017745937E+01  -9.636932123E+01   4.179817821E+01
   2.489700000E-02   1.006239839E+02  -3.017817161E+01  -9.636474977E+01   4.180050020E+01
   2.489800000E-02   1.006263614E+02  -3.017888421E+01  -9.636018620E+01   4.180287811E+01
   2.489900000E-02   1.006287358E+02  -3.017959606E+01  -9.635562492E+01   4.180531321E+01
   2.490000000E-02   1.006311083E+02  -3.018030862E+01  -9.635106100E+01   4.180779746E+01
   2.490100000E-02   1.006334803E+02  -3.018101908E+01  -9.634649993E+01   4.181034484E+01
   2.490200000E-02   1.006358524E+02  -3.018172987E+01  -9.634194641E+01   4.181294223E+01
   2.490300000E-02   1.006382223E+02  -3.018244206E+01  -9.633738682E+01   4.181559280E+01
   2.490400000E-02   1.006405935E+02  -3.018315239E+01  -9.633283062E+01   4.181829372E+01
   2.490500000E-02   1.006429603E+02  -3.018386309E+01  -9.632827697E+01   4.182104118E+01
   2.490600000E-02   1.006453249E+02  -3.018457303E+01  -9.632372865E+01   4.182383708E+01
   2.490700000E-02   1.006476894E+02  -3.018528106E+01  -9.631918263E+01   4.182667987E+01
   2.490800000E-02   1.006500539E+02  -3.018598985E+01  -9.631463660E+01   4.182957108E+01
   2.490900000E-02   1.006524132E+02  -3.018669921E+01  -9.631009057E+01   4.183250653E+01
   2.491000000E-02   1.006547772E+02  -3.018740643E+01  -9.630554650E+01   4.183548309E+01
   2.491100000E-02   1.006571386E+02  -3.018811557E+01  -9.630100493E+01   4.183851001E+01
   2.491200000E-02   1.006594959E+02  -3.018882347E+01  -9.629646463E+01   4.184157673E+01
   2.491300000E-02   1.006618528E+02  -3.018952959E+01  -9.629192623E+01   4.184468116E+01
   2.491400000E-02   1.006642098E+02  -3.019023648E+01  -9.628739318E+01   4.184782639E+01
   2.491500000E-02   1.006665667E+02  -3.019094260E+01  -9.628285707E+01   4.185101090E+01
   2.491600000E-02   1.006689236E+02  -3.019164948E+01  -9.627832400E+01   4.185423086E+01
   2.491700000E-02   1.006712752E+02  -3.019235427E+01  -9.627379857E+01   4.185748781E+01
   2.491800000E-02   1.006736245E+02  -3.019305924E+01  -9.626927009E+01   4.186078022E+01
   2.491900000E-02   1.006759768E+02  -3.019376571E+01  -9.626473875E+01   4.186411397E+01
   2.492000000E-02   1.006783300E+02  -3.019447057E+01  -9.626021088E+01   4.186747249E+01
   2.492100000E-02   1.006806769E+02  -3.019517500E+01  -9.625569069E+01   4.187086740E+01
   2.492200000E-02   1.006830260E+02  -3.019587951E+01  -9.625116680E+01   4.187429408E+01
   2.492300000E-02   1.006853699E+02  -3.019658182E+01  -9.624664899E+01   4.187775051E+01
   2.492400000E-02   1.006877169E+02  -3.019728489E+01  -9.624213348E+01   4.188123324E+01
   2.492500000E-02   1.006900609E+02  -3.019798853E+01  -9.623761796E+01   4.188474686E+01
   2.492600000E-02   1.006924026E+02  -3.019869084E+01  -9.623310778E+01   4.188828679E+01
   2.492700000E-02   1.006947473E+02  -3.019939349E+01  -9.622858867E+01   4.189185692E+01
   2.492800000E-02   1.006970849E+02  -3.020009562E+01  -9.622407597E+01   4.189544846E+01
   2.492900000E-02   1.006994243E+02  -3.020079736E+01  -9.621956809E+01   4.189906355E+01
   2.493000000E-02   1.007017624E+02  -3.020149877E+01  -9.621506637E+01   4.190269932E+01
   2.493100000E-02   1.007041023E+02  -3.020219940E+01  -9.621055639E+01   4.190636510E+01
   2.493200000E-02   1.007064363E+02  -3.020289932E+01  -9.620605739E+01   4.191004685E+01
   2.493300000E-02   1.007087703E+02  -3.020359915E+01  -9.620155713E+01   4.191374811E+01
   2.493400000E-02   1.007111074E+02  -3.020429989E+01  -9.619705100E+01   4.191747329E+01
   2.493500000E-02   1.007134427E+02  -3.020500011E+01  -9.619255357E+01   4.192121480E+01
   2.493600000E-02   1.007157714E+02  -3.020569994E+01  -9.618805559E+01   4.192497061E+01
   2.493700000E-02   1.007181032E+02  -3.020639843E+01  -9.618356067E+01   4.192874435E+01
   2.493800000E-02   1.007204319E+02  -3.020709636E+01  -9.617906804E+01   4.193253449E+01
   2.493900000E-02   1.007227583E+02  -3.020779561E+01  -9.617458074E+01   4.193633721E+01
   2.494000000E-02   1.007250864E+02  -3.020849329E+01  -9.617008934E+01   4.194015345E+01
   2.494100000E-02   1.007274117E+02  -3.020919089E+01  -9.616560357E+01   4.194398308E+01
   2.494200000E-02   1.007297405E+02  -3.020988895E+01  -9.616111225E+01   4.194782930E+01
   2.494300000E-02   1.007320629E+02  -3.021058593E+01  -9.615662474E+01   4.195168108E+01
   2.494400000E-02   1.007343870E+02  -3.021128194E+01  -9.615214507E+01   4.195554368E+01
   2.494500000E-02   1.007367081E+02  -3.021197796E+01  -9.614766235E+01   4.195941353E+01
   2.494600000E-02   1.007390268E+02  -3.021267397E+01  -9.614318269E+01   4.196329252E+01
   2.494700000E-02   1.007413456E+02  -3.021336999E+01  -9.613870531E+01   4.196717762E+01
   2.494800000E-02   1.007436644E+02  -3.021406600E+01  -9.613423327E+01   4.197106920E+01
   2.494900000E-02   1.007459832E+02  -3.021476068E+01  -9.612975818E+01   4.197496840E+01
   2.495000000E-02   1.007483014E+02  -3.021545474E+01  -9.612528435E+01   4.197887050E+01
   2.495100000E-02   1.007506170E+02  -3.021615005E+01  -9.612081051E+01   4.198277998E+01
   2.495200000E-02   1.007529309E+02  -3.021684430E+01  -9.611633831E+01   4.198668931E+01
   2.495300000E-02   1.007552420E+02  -3.021753841E+01  -9.611187390E+01   4.199060111E+01
   2.495400000E-02   1.007575585E+02  -3.021823252E+01  -9.610740644E+01   4.199451405E+01
   2.495500000E-02   1.007598719E+02  -3.021892529E+01  -9.610294202E+01   4.199842699E+01
   2.495600000E-02   1.007621778E+02  -3.021961749E+01  -9.609847990E+01   4.200233993E+01
   2.495700000E-02   1.007644866E+02  -3.022031103E+01  -9.609401778E+01   4.200625020E+01
   2.495800000E-02   1.007668008E+02  -3.022100337E+01  -9.608955518E+01   4.201016442E+01
   2.495900000E-02   1.007691079E+02  -3.022169539E+01  -9.608509285E+01   4.201407306E+01
   2.496000000E-02   1.007714117E+02  -3.022238727E+01  -9.608063919E+01   4.201797650E+01
   2.496100000E-02   1.007737221E+02  -3.022307836E+01  -9.607617976E+01   4.202187647E+01
   2.496200000E-02   1.007760261E+02  -3.022377008E+01  -9.607172708E+01   4.202576954E+01
   2.496300000E-02   1.007783296E+02  -3.022446095E+01  -9.606727792E+01   4.202965807E+01
   2.496400000E-02   1.007806278E+02  -3.022515124E+01  -9.606283105E+01   4.203353898E+01
   2.496500000E-02   1.007829320E+02  -3.022584244E+01  -9.605837304E+01   4.203741998E+01
   2.496600000E-02   1.007852368E+02  -3.022653312E+01  -9.605392140E+01   4.204128893E+01
   2.496700000E-02   1.007875350E+02  -3.022722208E+01  -9.604947454E+01   4.204514695E+01
   2.496800000E-02   1.007898309E+02  -3.022791180E+01  -9.604503301E+01   4.204899734E+01
   2.496900000E-02   1.007921321E+02  -3.022860076E+01  -9.604058843E+01   4.205283743E+01
   2.497000000E-02   1.007944267E+02  -3.022929023E+01  -9.603614664E+01   4.205666856E+01
   2.497100000E-02   1.007967263E+02  -3.022997830E+01  -9.603170756E+01   4.206048437E+01
   2.497200000E-02   1.007990221E+02  -3.023066592E+01  -9.602726842E+01   4.206428909E+01
   2.497300000E-02   1.008013157E+02  -3.023135520E+01  -9.602282873E+01   4.206808570E+01
   2.497400000E-02   1.008036106E+02  -3.023204398E+01  -9.601838930E+01   4.207186688E+01
   2.497500000E-02   1.008059011E+02  -3.023273103E+01  -9.601395540E+01   4.207563451E+01
   2.497600000E-02   1.008081947E+02  -3.023341884E+01  -9.600952379E+01   4.207938803E+01
   2.497700000E-02   1.008104853E+02  -3.023410590E+01  -9.600509218E+01   4.208312363E+01
   2.497800000E-02   1.008127736E+02  -3.023479238E+01  -9.600066056E+01   4.208684550E+01
   2.497900000E-02   1.008150618E+02  -3.023547886E+01  -9.599622895E+01   4.209055060E+01
   2.498000000E-02   1.008173518E+02  -3.023616585E+01  -9.599179938E+01   4.209424319E+01
   2.498100000E-02   1.008196417E+02  -3.023685090E+01  -9.598737230E+01   4.209791509E+01
   2.498200000E-02   1.008219255E+02  -3.023753767E+01  -9.598294646E+01   4.210156860E+01
   2.498300000E-02   1.008242115E+02  -3.023822281E+01  -9.597852248E+01   4.210520389E+01
   2.498400000E-02   1.008264998E+02  -3.023890739E+01  -9.597409849E+01   4.210881858E+01
   2.498500000E-02   1.008287827E+02  -3.023959196E+01  -9.596967451E+01   4.211241574E+01
   2.498600000E-02   1.008310634E+02  -3.024027654E+01  -9.596525586E+01   4.211599232E+01
   2.498700000E-02   1.008333440E+02  -3.024096111E+01  -9.596083950E+01   4.211954868E+01
   2.498800000E-02   1.008356246E+02  -3.024164568E+01  -9.595642314E+01   4.212308331E+01
   2.498900000E-02   1.008379083E+02  -3.024233115E+01  -9.595200103E+01   4.212660230E+01
   2.499000000E-02   1.008401913E+02  -3.024301445E+01  -9.594758531E+01   4.213009702E+01
   2.499100000E-02   1.008424704E+02  -3.024369744E+01  -9.594317189E+01   4.213356580E+01
   2.499200000E-02   1.008447461E+02  -3.024438144E+01  -9.593875711E+01   4.213701358E+01
   2.499300000E-02   1.008470245E+02  -3.024506468E+01  -9.593434610E+01   4.214043492E+01
   2.499400000E-02   1.008492998E+02  -3.024574734E+01  -9.592993737E+01   4.214383492E+01
   2.499500000E-02   1.008515781E+02  -3.024643001E+01  -9.592552864E+01   4.214721051E+01
   2.499600000E-02   1.008538564E+02  -3.024711223E+01  -9.592111416E+01   4.215056645E+01
   2.499700000E-02   1.008561307E+02  -3.024779471E+01  -9.591670296E+01   4.215389429E+01
   2.499800000E-02   1.008584037E+02  -3.024847604E+01  -9.591229958E+01   4.215719625E+01
   2.499900000E-02   1.008606767E+02  -3.024915813E+01  -9.590789313E+01   4.216047267E+01
   2.500000000E-02   1.008629447E+02  -3.024983952E+01  -9.590349741E+01   4.216372178E+01
   2.500000037E-02   1.008629456E+02  -3.024983978E+01  -9.590349579E+01   4.216372299E+01




          JOB CONCLUDED

          TOTAL JOB TIME            6.63
