
**** 06/03/13 10:22:12 ********* PSpice 9.2 (Mar 2000) ******** ID# 1 ********

 ** Profile: "SCHEMATIC1-2"  [ G:\44FZ\paralel-schematic1-2.sim ] 


 ****     CIRCUIT DESCRIPTION


******************************************************************************




** Creating circuit file "paralel-schematic1-2.sim.cir" 
** WARNING: THIS AUTOMATICALLY GENERATED FILE MAY BE OVERWRITTEN BY SUBSEQUENT SIMULATIONS

*Libraries: 
* Local Libraries :
* From [PSPICE NETLIST] section of g:\program files\Orcad\PSpice\PSpice.ini file:
.lib "nom.lib" 

*Analysis directives: 
.TRAN 1u 25ms 13ms 1u 
.OPTIONS NOBIAS
.OPTIONS NOMOD
.OPTIONS NOOUTMSG
.OPTIONS ITL4= 100
.OPTIONS NUMDGT= 10
.OPTIONS WIDTH= 132
.PROBE V(*) I(*) W(*) D(*) NOISE(*) 
.INC ".\paralel-SCHEMATIC1.net" 



**** INCLUDING paralel-SCHEMATIC1.net ****
* source PARALEL
R_R2         0 N50597  1MEG  
X_S4    N241303 0 N27236 N241265 SCHEMATIC1_S4 
X_S2    N236610 0 N27236 N235437 SCHEMATIC1_S2 
R_RB1         0 SHIM  3.33333  
R_R6         0 N260882  1MEG  
E_DIFF3         N241303 0 VALUE {V(N257386,N254383)}
R_RB2         0 N235437  4  
R_R8         0 N260240  1MEG  
X_U2         N260882 N254383 Sw_tClose PARAMS: tClose=24m ttran=1u Rclosed=0.01
+  Ropen=1Meg
E_E1         N62053 0 VALUE {
+  if(I(V_V1)<138.9473,(-25.641*log((139.2857-I(V_V1))/139.2857))/-1.204+128.2051,0)
+  }
R_RB3         0 N239113  4  
C_CN         N40356 RN1  0.001  
L_L2         N64666 RN1  5uH  
C_CF         N00729 N27236  0.009  
V_V4         N259871 0   0.7
R_R4         0 N254383  1MEG  
R_RK2         N234987 N64666  0.02630  
R_RCN         0 N40356  0.02171  
V_V3         N50597 0 DC 0.01 AC 1
+PULSE 0 0.8 0 0.0098m 0.0001m 0.01m 0.01m
R_RCF         N00729 0  6.51419e-3  
X_S3    N239167 0 N27236 N239113 SCHEMATIC1_S3 
V_V5         N260240 0   0.7
X_U3         N260009 N260882 Sw_tClose PARAMS: tClose=24m ttran=1u Rclosed=0.01
+  Ropen=1Meg
R_R7         0 N260009  1MEG  
L_L1         N134688 N27236  5uH  
V_V6         N257386 0   0.7
X_S1    N27337 0 N27236 SHIM SCHEMATIC1_S1 
R_RDN         0 N27236  40  
E_DIFF1         N50582 0 VALUE {V(N08877,N27236)}
E_DIFF4         N239167 0 VALUE {V(N260240,N260882)}
V_V2         N254251 0   1
V_V1         N62053 N134650 DC 0 AC 1 0
R_RB4         0 N241265  4  
V_Unom         N08877 0   100
R_R3         0 N254251  1MEG  
E_DIFF5         N236610 0 VALUE {V(N259871,N260009)}
R_RA         0 RN1  6.66666667  
R_RK1         N134688 N134650  0.02630  
E_DIFF2         N27337 0 VALUE {V(N50597,N50582)}
R_R5         0 N257386  1MEG  
X_SwStart         N27236 N234987 Sw_tClose PARAMS: tClose=14m ttran=1u
+  Rclosed=1u Ropen=1MEG
X_U1         N254383 N254251 Sw_tClose PARAMS: tClose=24m ttran=1u Rclosed=0.01
+  Ropen=1Meg
R_R1         0 N08877  1MEG  
R_R9         0 N259871  1MEG  
.IC         V(N134650 )=5
.PRINT         TRAN V([N27236]) I(R_RB1) I(R_RK1) I(R_RK2)
.subckt SCHEMATIC1_S4 1 2 3 4  
S_S4         3 4 1 2 _S4
RS_S4         1 2 1G
.MODEL         _S4 VSWITCH Roff=1e4 Ron=1m Voff=-1e-4 Von=1e-4
.ends SCHEMATIC1_S4

.subckt SCHEMATIC1_S2 1 2 3 4  
S_S2         3 4 1 2 _S2
RS_S2         1 2 1G
.MODEL         _S2 VSWITCH Roff=1e4 Ron=0.1m Voff=-1e-4 Von=1e-4
.ends SCHEMATIC1_S2

.subckt SCHEMATIC1_S3 1 2 3 4  
S_S3         3 4 1 2 _S3
RS_S3         1 2 1G
.MODEL         _S3 VSWITCH Roff=1e4 Ron=1m Voff=-1e-4 Von=1e-4
.ends SCHEMATIC1_S3

.subckt SCHEMATIC1_S1 1 2 3 4  
S_S1         3 4 1 2 _S1
RS_S1         1 2 1G
.MODEL         _S1 VSWITCH Roff=1e4 Ron=1m Voff=-1e-4 Von=1e-4
.ends SCHEMATIC1_S1

**** RESUMING paralel-schematic1-2.sim.cir ****
.END

WARNING -- Pulse Period < (Rise Time + Fall Time + Pulse Width) for V_V3
WARNING -- Pulse Period < (Rise Time + Fall Time + Pulse Width) for V_V3
**** 06/03/13 10:22:12 ********* PSpice 9.2 (Mar 2000) ******** ID# 1 ********

 ** Profile: "SCHEMATIC1-2"  [ G:\44FZ\paralel-schematic1-2.sim ] 


 ****     TRANSIENT ANALYSIS               TEMPERATURE =   27.000 DEG C


******************************************************************************



  TIME              V(N27236)         I(R_RB1)          I(R_RK1)          I(R_RK2)          

   1.300000000E-02   9.984606869E+01  -9.981280130E-03  -9.806647543E+01   9.984556416E-05
   1.300100000E-02   9.984817359E+01  -9.981489939E-03  -9.803760821E+01   9.984769495E-05
   1.300200000E-02   9.983615145E+01  -2.173023418E+00  -9.801264043E+01   9.983567487E-05
   1.300300000E-02   9.975512896E+01  -1.486759676E+01  -9.799906096E+01   9.975464964E-05
   1.300400000E-02   9.967346154E+01  -2.746403132E+01  -9.800230833E+01   9.967297944E-05
   1.300500000E-02   9.965686699E+01  -2.988812291E+01  -9.801553996E+01   9.965639161E-05
   1.300600000E-02   9.965594395E+01  -2.988784784E+01  -9.802807138E+01   9.965546768E-05
   1.300700000E-02   9.965501936E+01  -2.988756898E+01  -9.803949567E+01   9.965454139E-05
   1.300800000E-02   9.965408791E+01  -2.988728867E+01  -9.804991549E+01   9.965360387E-05
   1.300900000E-02   9.965314942E+01  -2.988700828E+01  -9.805944311E+01   9.965267117E-05
   1.301000000E-02   9.974900249E+01  -1.499975064E+01  -9.806438707E+01   9.974851949E-05
   1.301100000E-02   9.984825992E+01  -9.981498587E-03  -9.803591164E+01   9.984777534E-05
   1.301200000E-02   9.982323176E+01  -4.164524291E+00  -9.801240382E+01   9.982275495E-05
   1.301300000E-02   9.975512562E+01  -1.485035102E+01  -9.800007820E+01   9.975464739E-05
   1.301400000E-02   9.967348691E+01  -2.745746452E+01  -9.800212104E+01   9.967300796E-05
   1.301500000E-02   9.965716010E+01  -2.984531011E+01  -9.801497253E+01   9.965668209E-05
   1.301600000E-02   9.965596811E+01  -2.988785255E+01  -9.802753652E+01   9.965548892E-05
   1.301700000E-02   9.965503951E+01  -2.988757427E+01  -9.803901279E+01   9.965455366E-05
   1.301800000E-02   9.965410880E+01  -2.988729581E+01  -9.804947619E+01   9.965362714E-05
   1.301900000E-02   9.965317194E+01  -2.988701426E+01  -9.805904213E+01   9.965268531E-05
   1.302000000E-02   9.974939908E+01  -1.494163415E+01  -9.806403598E+01   9.974891519E-05
   1.302100000E-02   9.984827886E+01  -9.981501114E-03  -9.803558713E+01   9.984779798E-05
   1.302200000E-02   9.982322205E+01  -4.169133268E+00  -9.801211155E+01   9.982274722E-05
   1.302300000E-02   9.975509384E+01  -1.485856660E+01  -9.799981633E+01   9.975461560E-05
   1.302400000E-02   9.967353109E+01  -2.745390891E+01  -9.800188895E+01   9.967305214E-05
   1.302500000E-02   9.965717842E+01  -2.984593170E+01  -9.801477321E+01   9.965669353E-05
   1.302600000E-02   9.965598435E+01  -2.988786007E+01  -9.802734927E+01   9.965550912E-05
   1.302700000E-02   9.965506142E+01  -2.988758200E+01  -9.803883666E+01   9.965457584E-05
   1.302800000E-02   9.965412590E+01  -2.988730202E+01  -9.804931535E+01   9.965364946E-05
   1.302900000E-02   9.965318699E+01  -2.988702149E+01  -9.805889797E+01   9.965270692E-05
   1.303000000E-02   9.974934421E+01  -1.495302014E+01  -9.806390092E+01   9.974886308E-05
   1.303100000E-02   9.984829775E+01  -9.981502863E-03  -9.803547715E+01   9.984781868E-05
   1.303200000E-02   9.982324880E+01  -4.168191178E+00  -9.801200658E+01   9.982277364E-05
   1.303300000E-02   9.975508485E+01  -1.486318878E+01  -9.799971166E+01   9.975460661E-05
   1.303400000E-02   9.967349933E+01  -2.746193679E+01  -9.800179868E+01   9.967302038E-05
   1.303500000E-02   9.965719823E+01  -2.984639700E+01  -9.801467656E+01   9.965671247E-05
   1.303600000E-02   9.965600774E+01  -2.988786594E+01  -9.802726359E+01   9.965553144E-05
   1.303700000E-02   9.965507780E+01  -2.988758766E+01  -9.803876293E+01   9.965459745E-05
   1.303800000E-02   9.965414709E+01  -2.988730764E+01  -9.804924307E+01   9.965367093E-05
   1.303900000E-02   9.965321023E+01  -2.988702732E+01  -9.805882440E+01   9.965272911E-05
   1.304000000E-02   9.974929344E+01  -1.496436386E+01  -9.806383832E+01   9.974881126E-05
   1.304100000E-02   9.984832146E+01  -9.981504807E-03  -9.803540060E+01   9.984784132E-05
   1.304200000E-02   9.982324137E+01  -4.172700051E+00  -9.801194014E+01   9.982276590E-05
   1.304300000E-02   9.975510626E+01  -1.486294951E+01  -9.799966042E+01   9.975462803E-05
   1.304400000E-02   9.967349416E+01  -2.746577213E+01  -9.800174859E+01   9.967301521E-05
   1.304500000E-02   9.965720987E+01  -2.984702392E+01  -9.801464098E+01   9.965672952E-05
   1.304600000E-02   9.965602893E+01  -2.988787156E+01  -9.802722398E+01   9.965554691E-05
   1.304700000E-02   9.965510104E+01  -2.988759349E+01  -9.803871287E+01   9.965461236E-05
   1.304800000E-02   9.965416976E+01  -2.988731329E+01  -9.804920593E+01   9.965369128E-05
   1.304900000E-02   9.965323276E+01  -2.988703294E+01  -9.805878993E+01   9.965274456E-05
   1.305000000E-02   9.974969003E+01  -1.490624732E+01  -9.806378480E+01   9.974920696E-05
   1.305100000E-02   9.984833844E+01  -9.981506556E-03  -9.803537453E+01   9.984785474E-05
   1.305200000E-02   9.982326585E+01  -4.171574218E+00  -9.801191375E+01   9.982278507E-05
   1.305300000E-02   9.975509728E+01  -1.486731254E+01  -9.799962671E+01   9.975461686E-05
   1.305400000E-02   9.967351175E+01  -2.746598006E+01  -9.800171588E+01   9.967303280E-05
   1.305500000E-02   9.965723006E+01  -2.984740860E+01  -9.801460316E+01   9.965674284E-05
   1.305600000E-02   9.965604532E+01  -2.988787722E+01  -9.802719627E+01   9.965556726E-05
   1.305700000E-02   9.965511594E+01  -2.988759910E+01  -9.803868676E+01   9.965463382E-05
   1.305800000E-02   9.965418538E+01  -2.988731912E+01  -9.804917150E+01   9.965370745E-05
   1.305900000E-02   9.965324852E+01  -2.988703881E+01  -9.805875430E+01   9.965276563E-05
   1.306000000E-02   9.974918399E+01  -1.498709264E+01  -9.806377037E+01   9.974870004E-05
   1.306100000E-02   9.984835928E+01  -9.981508501E-03  -9.803533327E+01   9.984787738E-05
   1.306200000E-02   9.982325841E+01  -4.175886758E+00  -9.801187478E+01   9.982277731E-05
   1.306300000E-02   9.975511869E+01  -1.486679387E+01  -9.799959835E+01   9.975463827E-05
   1.306400000E-02   9.967347999E+01  -2.747360920E+01  -9.800169428E+01   9.967300104E-05
   1.306500000E-02   9.965724171E+01  -2.984798491E+01  -9.801458552E+01   9.965675990E-05
   1.306600000E-02   9.965606092E+01  -2.988788305E+01  -9.802716868E+01   9.965558343E-05
   1.306700000E-02   9.965513799E+01  -2.988760497E+01  -9.803865775E+01   9.965464889E-05
   1.306800000E-02   9.965420176E+01  -2.988732478E+01  -9.804915095E+01   9.965372780E-05
   1.306900000E-02   9.965326342E+01  -2.988704442E+01  -9.805872879E+01   9.965278109E-05
   1.307000000E-02   9.974957676E+01  -1.492897513E+01  -9.806372829E+01   9.974909574E-05
   1.307100000E-02   9.984837340E+01  -9.981510249E-03  -9.803532056E+01   9.984789080E-05
   1.307200000E-02   9.982325894E+01  -4.178440124E+00  -9.801184187E+01   9.982277763E-05
   1.307300000E-02   9.975508691E+01  -1.487443134E+01  -9.799956997E+01   9.975460139E-05
   1.307400000E-02   9.967352417E+01  -2.746946758E+01  -9.800166588E+01   9.967304521E-05
   1.307500000E-02   9.965699142E+01  -2.988816073E+01  -9.801472157E+01   9.965650779E-05
   1.307600000E-02   9.965606898E+01  -2.988788432E+01  -9.802727514E+01   9.965558441E-05
   1.307700000E-02   9.965513949E+01  -2.988760618E+01  -9.803875586E+01   9.965466045E-05
   1.307800000E-02   9.965420893E+01  -2.988732617E+01  -9.804922639E+01   9.965373051E-05
   1.307900000E-02   9.965327196E+01  -2.988704586E+01  -9.805880173E+01   9.965279330E-05
   1.308000000E-02   9.974951084E+01  -1.494030000E+01  -9.806379157E+01   9.974902582E-05
   1.308100000E-02   9.984838185E+01  -9.981511262E-03  -9.803536322E+01   9.984789889E-05
   1.308200000E-02   9.982327088E+01  -4.177437028E+00  -9.801189563E+01   9.982278946E-05
   1.308300000E-02   9.975513112E+01  -1.486832458E+01  -9.799961486E+01   9.975464561E-05
   1.308400000E-02   9.967349241E+01  -2.747509986E+01  -9.800170799E+01   9.967301345E-05
   1.308500000E-02   9.965699349E+01  -2.988816253E+01  -9.801476246E+01   9.965651471E-05
   1.308600000E-02   9.965607575E+01  -2.988788634E+01  -9.802730200E+01   9.965559205E-05
   1.308700000E-02   9.965514763E+01  -2.988760824E+01  -9.803877384E+01   9.965466211E-05
   1.308800000E-02   9.965421634E+01  -2.988732801E+01  -9.804925177E+01   9.965373028E-05
   1.308900000E-02   9.965327922E+01  -2.988704605E+01  -9.805882188E+01   9.965279293E-05
   1.309000000E-02   9.974944061E+01  -1.495170009E+01  -9.806380910E+01   9.974895906E-05
   1.309100000E-02   9.984838553E+01  -9.981511344E-03  -9.803536774E+01   9.984790698E-05
   1.309200000E-02   9.982325655E+01  -4.180271398E+00  -9.801190244E+01   9.982277732E-05
   1.309300000E-02   9.975509933E+01  -1.487400752E+01  -9.799962691E+01   9.975461382E-05
   1.309400000E-02   9.967348722E+01  -2.747660646E+01  -9.800171893E+01   9.967300827E-05
   1.309500000E-02   9.965699680E+01  -2.988816349E+01  -9.801475951E+01   9.965651705E-05
   1.309600000E-02   9.965607462E+01  -2.988788715E+01  -9.802729716E+01   9.965559703E-05
   1.309700000E-02   9.965515152E+01  -2.988760906E+01  -9.803877256E+01   9.965466854E-05
   1.309800000E-02   9.965421624E+01  -2.988732911E+01  -9.804924176E+01   9.965373744E-05
   1.309900000E-02   9.965328422E+01  -2.988704879E+01  -9.805880750E+01   9.965280045E-05
   1.310000000E-02   9.974937018E+01  -1.496313115E+01  -9.806381137E+01   9.974888845E-05
   1.310100000E-02   9.984838916E+01  -9.981512162E-03  -9.803538268E+01   9.984790585E-05
   1.310200000E-02   9.982327877E+01  -4.177525734E+00  -9.801191420E+01   9.982279725E-05
   1.310300000E-02   9.975509035E+01  -1.487608767E+01  -9.799962601E+01   9.975460483E-05
   1.310400000E-02   9.967350482E+01  -2.747457276E+01  -9.800171407E+01   9.967302587E-05
   1.310500000E-02   9.965700066E+01  -2.988816427E+01  -9.801476828E+01   9.965652049E-05
   1.310600000E-02   9.965607915E+01  -2.988788813E+01  -9.802729912E+01   9.965560123E-05
   1.310700000E-02   9.965515622E+01  -2.988761008E+01  -9.803877028E+01   9.965467285E-05
   1.310800000E-02   9.965422088E+01  -2.988733012E+01  -9.804923634E+01   9.965374175E-05
   1.310900000E-02   9.965328198E+01  -2.988704960E+01  -9.805881259E+01   9.965280403E-05
   1.311000000E-02   9.974930446E+01  -1.497442410E+01  -9.806381362E+01   9.974881874E-05
   1.311100000E-02   9.984839761E+01  -9.981512244E-03  -9.803536431E+01   9.984791394E-05
   1.311200000E-02   9.982326673E+01  -4.180305138E+00  -9.801189812E+01   9.982278510E-05
   1.311300000E-02   9.975511176E+01  -1.487339817E+01  -9.799962054E+01   9.975462625E-05
   1.311400000E-02   9.967347306E+01  -2.748007588E+01  -9.800171306E+01   9.967299411E-05
   1.311500000E-02   9.965700879E+01  -2.988816633E+01  -9.801475347E+01   9.965652555E-05
   1.311600000E-02   9.965608658E+01  -2.988788997E+01  -9.802729415E+01   9.965560239E-05
   1.311700000E-02   9.965515728E+01  -2.988761188E+01  -9.803876704E+01   9.965467840E-05
   1.311800000E-02   9.965422672E+01  -2.988733192E+01  -9.804923272E+01   9.965374275E-05
   1.311900000E-02   9.965328995E+01  -2.988705006E+01  -9.805880150E+01   9.965280437E-05
   1.312000000E-02   9.974968197E+01  -1.491630562E+01  -9.806379443E+01   9.974919989E-05
   1.312100000E-02   9.984839647E+01  -9.981513061E-03  -9.803537163E+01   9.984791281E-05
   1.312200000E-02   9.982326267E+01  -4.181401622E+00  -9.801188809E+01   9.982278105E-05
   1.312300000E-02   9.975507998E+01  -1.487897547E+01  -9.799960970E+01   9.975459446E-05
   1.312400000E-02   9.967351724E+01  -2.747391587E+01  -9.800170489E+01   9.967303829E-05
   1.312500000E-02   9.965701184E+01  -2.988816724E+01  -9.801475030E+01   9.965652861E-05
   1.312600000E-02   9.965609036E+01  -2.988789111E+01  -9.802728169E+01   9.965560617E-05
   1.312700000E-02   9.965516055E+01  -2.988761285E+01  -9.803875943E+01   9.965468165E-05
   1.312800000E-02   9.965422982E+01  -2.988733285E+01  -9.804922894E+01   9.965374588E-05
   1.312900000E-02   9.965329308E+01  -2.988705254E+01  -9.805879447E+01   9.965281339E-05
   1.313000000E-02   9.974916449E+01  -1.499714907E+01  -9.806380288E+01   9.974867842E-05
   1.313100000E-02   9.984840492E+01  -9.981513143E-03  -9.803535611E+01   9.984792090E-05
   1.313200000E-02   9.982327462E+01  -4.180258044E+00  -9.801188616E+01   9.982279289E-05
   1.313300000E-02   9.975512419E+01  -1.487267424E+01  -9.799961187E+01   9.975463868E-05
   1.313400000E-02   9.967348548E+01  -2.747936300E+01  -9.800170389E+01   9.967300653E-05
   1.313500000E-02   9.965701656E+01  -2.988816828E+01  -9.801474382E+01   9.965653297E-05
   1.313600000E-02   9.965609435E+01  -2.988789192E+01  -9.802728464E+01   9.965560981E-05
   1.313700000E-02   9.965516505E+01  -2.988761383E+01  -9.803875769E+01   9.965468582E-05
   1.313800000E-02   9.965423449E+01  -2.988733387E+01  -9.804922352E+01   9.965375017E-05
   1.313900000E-02   9.965329773E+01  -2.988705356E+01  -9.805878624E+01   9.965281179E-05
   1.314000000E-02   9.974954200E+01  -1.493902963E+01  -9.806378750E+01   9.974905956E-05
   1.314100000E-02   9.984840451E+01  -9.981513452E-03  -9.803535856E+01   9.984792049E-05
   1.314200000E-02   9.982327057E+01  -4.181317342E+00  -9.801188377E+01   9.982278884E-05
   1.314300000E-02   9.975509240E+01  -1.487820123E+01  -9.799960333E+01   9.975460689E-05
   1.314400000E-02   9.967352966E+01  -2.747315218E+01  -9.800169572E+01   9.967305070E-05
   1.314500000E-02   9.965701620E+01  -2.988816888E+01  -9.801474136E+01   9.965653533E-05
   1.314600000E-02   9.965609469E+01  -2.988789203E+01  -9.802727246E+01   9.965561606E-05
   1.314700000E-02   9.965517106E+01  -2.988761377E+01  -9.803875249E+01   9.965468698E-05
   1.314800000E-02   9.965423555E+01  -2.988733531E+01  -9.804921990E+01   9.965375572E-05
   1.314900000E-02   9.965330356E+01  -2.988705380E+01  -9.805878847E+01   9.965281870E-05
   1.315000000E-02   9.974947577E+01  -1.495040146E+01  -9.806378595E+01   9.974898934E-05
   1.315100000E-02   9.984841222E+01  -9.981514042E-03  -9.803534982E+01   9.984792785E-05
   1.315200000E-02   9.982328252E+01  -4.180140512E+00  -9.801188184E+01   9.982280068E-05
   1.315300000E-02   9.975508341E+01  -1.488014977E+01  -9.799959479E+01   9.975459789E-05
   1.315400000E-02   9.967349790E+01  -2.747855476E+01  -9.800169204E+01   9.967301895E-05
   1.315500000E-02   9.965702347E+01  -2.988816997E+01  -9.801474174E+01   9.965653953E-05
   1.315600000E-02   9.965610196E+01  -2.988789383E+01  -9.802726965E+01   9.965561706E-05
   1.315700000E-02   9.965517282E+01  -2.988761578E+01  -9.803874072E+01   9.965468732E-05
   1.315800000E-02   9.965424226E+01  -2.988733582E+01  -9.804920670E+01   9.965375622E-05
   1.315900000E-02   9.965330479E+01  -2.988705529E+01  -9.805878287E+01   9.965281850E-05
   1.316000000E-02   9.974940204E+01  -1.496175364E+01  -9.806378058E+01   9.974891561E-05
   1.316100000E-02   9.984841305E+01  -9.981514124E-03  -9.803533145E+01   9.984792867E-05
   1.316200000E-02   9.982326818E+01  -4.182832014E+00  -9.801186576E+01   9.982278634E-05
   1.316300000E-02   9.975510483E+01  -1.487733296E+01  -9.799959466E+01   9.975461932E-05
   1.316400000E-02   9.967349272E+01  -2.747986009E+01  -9.800169269E+01   9.967300904E-05
   1.316500000E-02   9.965702397E+01  -2.988817202E+01  -9.801473171E+01   9.965654003E-05
   1.316600000E-02   9.965610246E+01  -2.988789433E+01  -9.802726295E+01   9.965562348E-05
   1.316700000E-02   9.965517883E+01  -2.988761727E+01  -9.803874315E+01   9.965469440E-05
   1.316800000E-02   9.965424332E+01  -2.988733762E+01  -9.804921070E+01   9.965376314E-05
   1.316900000E-02   9.965330513E+01  -2.988705575E+01  -9.805877321E+01   9.965282612E-05
   1.317000000E-02   9.974978337E+01  -1.490363515E+01  -9.806376139E+01   9.974930038E-05
   1.317100000E-02   9.984841953E+01  -9.981514360E-03  -9.803534163E+01   9.984793208E-05
   1.317200000E-02   9.982329042E+01  -4.179958257E+00  -9.801187522E+01   9.982280847E-05
   1.317300000E-02   9.975509585E+01  -1.487923421E+01  -9.799958842E+01   9.975461033E-05
   1.317400000E-02   9.967351032E+01  -2.747765565E+01  -9.800168287E+01   9.967302664E-05
   1.317500000E-02   9.965703124E+01  -2.988817192E+01  -9.801472924E+01   9.965654694E-05
   1.317600000E-02   9.965610973E+01  -2.988789577E+01  -9.802726014E+01   9.965562448E-05
   1.317700000E-02   9.965518059E+01  -2.988761773E+01  -9.803873137E+01   9.965469474E-05
   1.317800000E-02   9.965424933E+01  -2.988733756E+01  -9.804920529E+01   9.965376294E-05
   1.317900000E-02   9.965331240E+01  -2.988705720E+01  -9.805877545E+01   9.965282576E-05
   1.318000000E-02   9.974926207E+01  -1.498447766E+01  -9.806377747E+01   9.974877529E-05
   1.318100000E-02   9.984842035E+01  -9.981515023E-03  -9.803532802E+01   9.984793563E-05
   1.318200000E-02   9.982327608E+01  -4.182619711E+00  -9.801186143E+01   9.982279413E-05
   1.318300000E-02   9.975511726E+01  -1.487637682E+01  -9.799958829E+01   9.975463175E-05
   1.318400000E-02   9.967347856E+01  -2.748299337E+01  -9.800168186E+01   9.967299487E-05
   1.318500000E-02   9.965703174E+01  -2.988817278E+01  -9.801472206E+01   9.965654744E-05
   1.318600000E-02   9.965610953E+01  -2.988789572E+01  -9.802726280E+01   9.965562428E-05
   1.318700000E-02   9.965518023E+01  -2.988761762E+01  -9.803873576E+01   9.965470029E-05
   1.318800000E-02   9.965424967E+01  -2.988733921E+01  -9.804920151E+01   9.965376464E-05
   1.318900000E-02   9.965331291E+01  -2.988705770E+01  -9.805876415E+01   9.965283218E-05
   1.319000000E-02   9.974964340E+01  -1.492635916E+01  -9.806375828E+01   9.974915644E-05
   1.319100000E-02   9.984842208E+01  -9.981514909E-03  -9.803533534E+01   9.984793449E-05
   1.319200000E-02   9.982327202E+01  -4.183602044E+00  -9.801185141E+01   9.982279008E-05
   1.319300000E-02   9.975508547E+01  -1.488179302E+01  -9.799957745E+01   9.975459996E-05
   1.319400000E-02   9.967352273E+01  -2.747667444E+01  -9.800167369E+01   9.967303905E-05
   1.319500000E-02   9.965703423E+01  -2.988817387E+01  -9.801471960E+01   9.965654980E-05
   1.319600000E-02   9.965610987E+01  -2.988789772E+01  -9.802725062E+01   9.965563053E-05
   1.319700000E-02   9.965518694E+01  -2.988761968E+01  -9.803872203E+01   9.965470216E-05
   1.319800000E-02   9.965425089E+01  -2.988733951E+01  -9.804919610E+01   9.965377035E-05
   1.319900000E-02   9.965331874E+01  -2.988705915E+01  -9.805876638E+01   9.965283318E-05
   1.320000000E-02   9.974957373E+01  -1.493767083E+01  -9.806375671E+01   9.974908660E-05
   1.320100000E-02   9.984842766E+01  -9.981515341E-03  -9.803531982E+01   9.984794258E-05
   1.320200000E-02   9.982328397E+01  -4.182349713E+00  -9.801185482E+01   9.982280192E-05
   1.320300000E-02   9.975512968E+01  -1.487534133E+01  -9.799957657E+01   9.975464417E-05
   1.320400000E-02   9.967349097E+01  -2.748197276E+01  -9.800167269E+01   9.967300475E-05
   1.320500000E-02   9.965703897E+01  -2.988817457E+01  -9.801472015E+01   9.965655432E-05
   1.320600000E-02   9.965611714E+01  -2.988789762E+01  -9.802724923E+01   9.965563153E-05
   1.320700000E-02   9.965518800E+01  -2.988761957E+01  -9.803871879E+01   9.965470179E-05
   1.320800000E-02   9.965425744E+01  -2.988734116E+01  -9.804918468E+01   9.965377070E-05
   1.320900000E-02   9.965332068E+01  -2.988705965E+01  -9.805875366E+01   9.965283368E-05
   1.321000000E-02   9.974949961E+01  -1.494908318E+01  -9.806375517E+01   9.974901248E-05
   1.321100000E-02   9.984842848E+01  -9.981516005E-03  -9.803530622E+01   9.984794340E-05
   1.321200000E-02   9.982326963E+01  -4.184970760E+00  -9.801184102E+01   9.982278758E-05
   1.321300000E-02   9.975509790E+01  -1.488071939E+01  -9.799957107E+01   9.975461239E-05
   1.321400000E-02   9.967353515E+01  -2.747561761E+01  -9.800166451E+01   9.967304892E-05
   1.321500000E-02   9.965704256E+01  -2.988817493E+01  -9.801470925E+01   9.965655791E-05
   1.321600000E-02   9.965612038E+01  -2.988789859E+01  -9.802724397E+01   9.965563478E-05
   1.321700000E-02   9.965519111E+01  -2.988762050E+01  -9.803871935E+01   9.965470490E-05
   1.321800000E-02   9.965426054E+01  -2.988734209E+01  -9.804918236E+01   9.965377380E-05
   1.321900000E-02   9.965332381E+01  -2.988706060E+01  -9.805874663E+01   9.965283681E-05
   1.322000000E-02   9.974942926E+01  -1.496050103E+01  -9.806374981E+01   9.974894195E-05
   1.322100000E-02   9.984843020E+01  -9.981515891E-03  -9.803531640E+01   9.984794226E-05
   1.322200000E-02   9.982328958E+01  -4.182026394E+00  -9.801185049E+01   9.982280753E-05
   1.322300000E-02   9.975508891E+01  -1.488252379E+01  -9.799956483E+01   9.975460340E-05
   1.322400000E-02   9.967350339E+01  -2.748087901E+01  -9.800166847E+01   9.967301716E-05
   1.322500000E-02   9.965704220E+01  -2.988817673E+01  -9.801471150E+01   9.965655756E-05
   1.322600000E-02   9.965612072E+01  -2.988790060E+01  -9.802723947E+01   9.965563512E-05
   1.322700000E-02   9.965519091E+01  -2.988762234E+01  -9.803871557E+01   9.965471060E-05
   1.322800000E-02   9.965426018E+01  -2.988734234E+01  -9.804918491E+01   9.965377482E-05
   1.322900000E-02   9.965332344E+01  -2.988706203E+01  -9.805875029E+01   9.965283645E-05
   1.323000000E-02   9.974935965E+01  -1.497180625E+01  -9.806375206E+01   9.974887216E-05
   1.323100000E-02   9.984843579E+01  -9.981516322E-03  -9.803530279E+01   9.984795036E-05
   1.323200000E-02   9.982327753E+01  -4.184621999E+00  -9.801183670E+01   9.982279537E-05
   1.323300000E-02   9.975511033E+01  -1.487957137E+01  -9.799956470E+01   9.975462481E-05
   1.323400000E-02   9.967347163E+01  -2.748612514E+01  -9.800166480E+01   9.967298540E-05
   1.323500000E-02   9.965704474E+01  -2.988817663E+01  -9.801471193E+01   9.965655720E-05
   1.323600000E-02   9.965612036E+01  -2.988790049E+01  -9.802723665E+01   9.965563476E-05
   1.323700000E-02   9.965519742E+01  -2.988762245E+01  -9.803871001E+01   9.965471093E-05
   1.323800000E-02   9.965426214E+01  -2.988734250E+01  -9.804917316E+01   9.965378122E-05
   1.323900000E-02   9.965332942E+01  -2.988706197E+01  -9.805874466E+01   9.965284353E-05
   1.324000000E-02   9.974973715E+01  -1.491368774E+01  -9.806373287E+01   9.974924966E-05
   1.324100000E-02   9.984843465E+01  -9.981516790E-03  -9.803531297E+01   9.984794922E-05
   1.324200000E-02   9.982327347E+01  -4.185541316E+00  -9.801183202E+01   9.982279131E-05
   1.324300000E-02   9.975507854E+01  -1.488489748E+01  -9.799956149E+01   9.975459303E-05
   1.324400000E-02   9.967351581E+01  -2.747971851E+01  -9.800165929E+01   9.967302958E-05
   1.324500000E-02   9.965704997E+01  -2.988817750E+01  -9.801470185E+01   9.965656497E-05
   1.324600000E-02   9.965612849E+01  -2.988790064E+01  -9.802722996E+01   9.965564253E-05
   1.324700000E-02   9.965519868E+01  -2.988762239E+01  -9.803870622E+01   9.965471212E-05
   1.324800000E-02   9.965426795E+01  -2.988734393E+01  -9.804917571E+01   9.965378086E-05
   1.324900000E-02   9.965333121E+01  -2.988706244E+01  -9.805874123E+01   9.965284387E-05
   1.325000000E-02   9.974921585E+01  -1.499453027E+01  -9.806374895E+01   9.974872820E-05
   1.325100000E-02   9.984843833E+01  -9.981516872E-03  -9.803529936E+01   9.984795004E-05
   1.325200000E-02   9.982328313E+01  -4.184226942E+00  -9.801183237E+01   9.982280098E-05
   1.325300000E-02   9.975512275E+01  -1.487835822E+01  -9.799955832E+01   9.975463724E-05
   1.325400000E-02   9.967348405E+01  -2.748493154E+01  -9.800165562E+01   9.967299782E-05
   1.325500000E-02   9.965704961E+01  -2.988817857E+01  -9.801470229E+01   9.965656462E-05
   1.325600000E-02   9.965612813E+01  -2.988790244E+01  -9.802723332E+01   9.965564217E-05
   1.325700000E-02   9.965519902E+01  -2.988762439E+01  -9.803870212E+01   9.965471246E-05
   1.325800000E-02   9.965426846E+01  -2.988734445E+01  -9.804917014E+01   9.965378136E-05
   1.325900000E-02   9.965333101E+01  -2.988706392E+01  -9.805874323E+01   9.965284367E-05
   1.326000000E-02   9.974959719E+01  -1.493641176E+01  -9.806373357E+01   9.974910935E-05
   1.326100000E-02   9.984844269E+01  -9.981516831E-03  -9.803529990E+01   9.984795418E-05
   1.326200000E-02   9.982328137E+01  -4.185123740E+00  -9.801182770E+01   9.982279911E-05
   1.326300000E-02   9.975509097E+01  -1.488365367E+01  -9.799955512E+01   9.975460545E-05
   1.326400000E-02   9.967352823E+01  -2.747849507E+01  -9.800165012E+01   9.967304199E-05
   1.326500000E-02   9.965705011E+01  -2.988817872E+01  -9.801469511E+01   9.965656511E-05
   1.326600000E-02   9.965612793E+01  -2.988790238E+01  -9.802722977E+01   9.965564198E-05
   1.326700000E-02   9.965520484E+01  -2.988762429E+01  -9.803870505E+01   9.965471799E-05
   1.326800000E-02   9.965426955E+01  -2.988734434E+01  -9.804916797E+01   9.965378238E-05
   1.326900000E-02   9.965333136E+01  -2.988706402E+01  -9.805873217E+01   9.965284990E-05
   1.327000000E-02   9.974952341E+01  -1.494777039E+01  -9.806373202E+01   9.974903557E-05
   1.327100000E-02   9.984844278E+01  -9.981517189E-03  -9.803529593E+01   9.984795699E-05
   1.327200000E-02   9.982329104E+01  -4.183789622E+00  -9.801182805E+01   9.982280877E-05
   1.327300000E-02   9.975508197E+01  -1.488538206E+01  -9.799954658E+01   9.975459646E-05
   1.327400000E-02   9.967349646E+01  -2.748368073E+01  -9.800165408E+01   9.967301024E-05
   1.327500000E-02   9.965705738E+01  -2.988817934E+01  -9.801469737E+01   9.965656476E-05
   1.327600000E-02   9.965613590E+01  -2.988790248E+01  -9.802722526E+01   9.965564820E-05
   1.327700000E-02   9.965520679E+01  -2.988762444E+01  -9.803869277E+01   9.965471988E-05
   1.327800000E-02   9.965427553E+01  -2.988734582E+01  -9.804916870E+01   9.965378808E-05
   1.327900000E-02   9.965333862E+01  -2.988706428E+01  -9.805873583E+01   9.965285092E-05
   1.328000000E-02   9.974945341E+01  -1.495913483E+01  -9.806373047E+01   9.974896175E-05
   1.328100000E-02   9.984844646E+01  -9.981517271E-03  -9.803528041E+01   9.984795781E-05
   1.328200000E-02   9.982327668E+01  -4.186333214E+00  -9.801181731E+01   9.982279443E-05
   1.328300000E-02   9.975510339E+01  -1.488235397E+01  -9.799954874E+01   9.975461788E-05
   1.328400000E-02   9.967349128E+01  -2.748477979E+01  -9.800164709E+01   9.967300506E-05
   1.328500000E-02   9.965705735E+01  -2.988818051E+01  -9.801469311E+01   9.965657200E-05
   1.328600000E-02   9.965613554E+01  -2.988790428E+01  -9.802722244E+01   9.965564923E-05
   1.328700000E-02   9.965520643E+01  -2.988762624E+01  -9.803869571E+01   9.965471951E-05
   1.328800000E-02   9.965427587E+01  -2.988734629E+01  -9.804915878E+01   9.965378842E-05
   1.328900000E-02   9.965333913E+01  -2.988706597E+01  -9.805872311E+01   9.965285143E-05
   1.329000000E-02   9.974983093E+01  -1.490101632E+01  -9.806371509E+01   9.974934290E-05
   1.329100000E-02   9.984845009E+01  -9.981517739E-03  -9.803529537E+01   9.984795668E-05
   1.329200000E-02   9.982329894E+01  -4.183313402E+00  -9.801182906E+01   9.982281438E-05
   1.329300000E-02   9.975509441E+01  -1.488405371E+01  -9.799954783E+01   9.975460890E-05
   1.329400000E-02   9.967350888E+01  -2.748237652E+01  -9.800164490E+01   9.967302265E-05
   1.329500000E-02   9.965705752E+01  -2.988818057E+01  -9.801469063E+01   9.965657217E-05
   1.329600000E-02   9.965613604E+01  -2.988790443E+01  -9.802721575E+01   9.965564973E-05
   1.329700000E-02   9.965520623E+01  -2.988762618E+01  -9.803869192E+01   9.965471932E-05
   1.329800000E-02   9.965427550E+01  -2.988734618E+01  -9.804916133E+01   9.965378805E-05
   1.329900000E-02   9.965333876E+01  -2.988706586E+01  -9.805872677E+01   9.965285106E-05
   1.330000000E-02   9.974930963E+01  -1.498185885E+01  -9.806373117E+01   9.974881779E-05
   1.330100000E-02   9.984845091E+01  -9.981517821E-03  -9.803528176E+01   9.984796204E-05
   1.330200000E-02   9.982328458E+01  -4.185839164E+00  -9.801181527E+01   9.982280222E-05
   1.330300000E-02   9.975511582E+01  -1.488100101E+01  -9.799954236E+01   9.975463031E-05
   1.330400000E-02   9.967347712E+01  -2.748752277E+01  -9.800164886E+01   9.967299090E-05
   1.330500000E-02   9.965705717E+01  -2.988818118E+01  -9.801469289E+01   9.965657181E-05
   1.330600000E-02   9.965613568E+01  -2.988790432E+01  -9.802722056E+01   9.965564937E-05
   1.330700000E-02   9.965521275E+01  -2.988762628E+01  -9.803868782E+01   9.965472555E-05
   1.330800000E-02   9.965427746E+01  -2.988734787E+01  -9.804915576E+01   9.965378995E-05
   1.330900000E-02   9.965333856E+01  -2.988706617E+01  -9.805872877E+01   9.965285086E-05
   1.331000000E-02   9.974968714E+01  -1.492373939E+01  -9.806371579E+01   9.974919894E-05
   1.331100000E-02   9.984844977E+01  -9.981517707E-03  -9.803529194E+01   9.984796363E-05
   1.331200000E-02   9.982328052E+01  -4.186690571E+00  -9.801181059E+01   9.982279816E-05
   1.331300000E-02   9.975508404E+01  -1.488623131E+01  -9.799953916E+01   9.975459852E-05
   1.331400000E-02   9.967352130E+01  -2.748102272E+01  -9.800163572E+01   9.967303507E-05
   1.331500000E-02   9.965706057E+01  -2.988818251E+01  -9.801468098E+01   9.965657231E-05
   1.331600000E-02   9.965614166E+01  -2.988790617E+01  -9.802721556E+01   9.965564918E-05
   1.331700000E-02   9.965521384E+01  -2.988762808E+01  -9.803869075E+01   9.965472519E-05
   1.331800000E-02   9.965428327E+01  -2.988734813E+01  -9.804915358E+01   9.965379547E-05
   1.331900000E-02   9.965334654E+01  -2.988706627E+01  -9.805871771E+01   9.965285848E-05
   1.332000000E-02   9.974961756E+01  -1.493503879E+01  -9.806371423E+01   9.974912555E-05
   1.332100000E-02   9.984845059E+01  -9.981518138E-03  -9.803527833E+01   9.984796445E-05
   1.332200000E-02   9.982329020E+01  -4.185310897E+00  -9.801181095E+01   9.982280274E-05
   1.332300000E-02   9.975512825E+01  -1.487960009E+01  -9.799954133E+01   9.975464055E-05
   1.332400000E-02   9.967348954E+01  -2.748614732E+01  -9.800163968E+01   9.967300331E-05
   1.332500000E-02   9.965706184E+01  -2.988818219E+01  -9.801468508E+01   9.965657613E-05
   1.332600000E-02   9.965614001E+01  -2.988790524E+01  -9.802721751E+01   9.965565335E-05
   1.332700000E-02   9.965521708E+01  -2.988762719E+01  -9.803868847E+01   9.965472361E-05
   1.332800000E-02   9.965428174E+01  -2.988734879E+01  -9.804915435E+01   9.965379251E-05
   1.332900000E-02   9.965334355E+01  -2.988706728E+01  -9.805871711E+01   9.965285550E-05
   1.333000000E-02   9.974954336E+01  -1.494646341E+01  -9.806371650E+01   9.974905135E-05
   1.333100000E-02   9.984845427E+01  -9.981518220E-03  -9.803526758E+01   9.984796526E-05
   1.333200000E-02   9.982327584E+01  -4.187814015E+00  -9.801180250E+01   9.982278838E-05
   1.333300000E-02   9.975509646E+01  -1.488481074E+01  -9.799953278E+01   9.975460877E-05
   1.333400000E-02   9.967353372E+01  -2.747962562E+01  -9.800163418E+01   9.967304748E-05
   1.333500000E-02   9.965706202E+01  -2.988818344E+01  -9.801467966E+01   9.965657631E-05
   1.333600000E-02   9.965614051E+01  -2.988790730E+01  -9.802721081E+01   9.965565385E-05
   1.333700000E-02   9.965521688E+01  -2.988762904E+01  -9.803868469E+01   9.965472932E-05
   1.333800000E-02   9.965428137E+01  -2.988734903E+01  -9.804915072E+01   9.965379350E-05
   1.333900000E-02   9.965334939E+01  -2.988706717E+01  -9.805871934E+01   9.965285513E-05
   1.334000000E-02   9.974947309E+01  -1.495786900E+01  -9.806371114E+01   9.974898090E-05
   1.334100000E-02   9.984845790E+01  -9.981518688E-03  -9.803527777E+01   9.984796413E-05
   1.334200000E-02   9.982329810E+01  -4.184753774E+00  -9.801181196E+01   9.982280835E-05
   1.334300000E-02   9.975508747E+01  -1.488645441E+01  -9.799953188E+01   9.975459468E-05
   1.334400000E-02   9.967350196E+01  -2.748473058E+01  -9.800163546E+01   9.967301573E-05
   1.334500000E-02   9.965706929E+01  -2.988818333E+01  -9.801468483E+01   9.965657595E-05
   1.334600000E-02   9.965614778E+01  -2.988790719E+01  -9.802720942E+01   9.965565349E-05
   1.334700000E-02   9.965521864E+01  -2.988762914E+01  -9.803867912E+01   9.965472966E-05
   1.334800000E-02   9.965428808E+01  -2.988734918E+01  -9.804914515E+01   9.965379992E-05
   1.334900000E-02   9.965335061E+01  -2.988706866E+01  -9.805871516E+01   9.965286220E-05
   1.335000000E-02   9.974939958E+01  -1.496918648E+01  -9.806371339E+01   9.974890739E-05
   1.335100000E-02   9.984845872E+01  -9.981518770E-03  -9.803526416E+01   9.984796949E-05
   1.335200000E-02   9.982328374E+01  -4.187242361E+00  -9.801179817E+01   9.982279618E-05
   1.335300000E-02   9.975510889E+01  -1.488334850E+01  -9.799953175E+01   9.975461610E-05
   1.335400000E-02   9.967347020E+01  -2.748982466E+01  -9.800163446E+01   9.967298397E-05
   1.335500000E-02   9.965706979E+01  -2.988818348E+01  -9.801467287E+01   9.965657645E-05
   1.335600000E-02   9.965614758E+01  -2.988790713E+01  -9.802721067E+01   9.965565921E-05
   1.335700000E-02   9.965521828E+01  -2.988762903E+01  -9.803868351E+01   9.965473066E-05
   1.335800000E-02   9.965428772E+01  -2.988734908E+01  -9.804914916E+01   9.965379956E-05
   1.335900000E-02   9.965335096E+01  -2.988706876E+01  -9.805871171E+01   9.965286255E-05
   1.336000000E-02   9.974977708E+01  -1.491106701E+01  -9.806370183E+01   9.974928853E-05
   1.336100000E-02   9.984845757E+01  -9.981518656E-03  -9.803527910E+01   9.984797109E-05
   1.336200000E-02   9.982327968E+01  -4.188058015E+00  -9.801179578E+01   9.982279212E-05
   1.336300000E-02   9.975507711E+01  -1.488852715E+01  -9.799952854E+01   9.975458432E-05
   1.336400000E-02   9.967351437E+01  -2.748327436E+01  -9.800162896E+01   9.967302814E-05
   1.336500000E-02   9.965706943E+01  -2.988818409E+01  -9.801467518E+01   9.965658337E-05
   1.336600000E-02   9.965614792E+01  -2.988790723E+01  -9.802720612E+01   9.965566090E-05
   1.336700000E-02   9.965521879E+01  -2.988762918E+01  -9.803867121E+01   9.965473117E-05
   1.336800000E-02   9.965428752E+01  -2.988735057E+01  -9.804914375E+01   9.965379936E-05
   1.336900000E-02   9.965335059E+01  -2.988706901E+01  -9.805871394E+01   9.965286218E-05
   1.337000000E-02   9.974925578E+01  -1.499191051E+01  -9.806371411E+01   9.974876344E-05
   1.337100000E-02   9.984846126E+01  -9.981518738E-03  -9.803526359E+01   9.984797190E-05
   1.337200000E-02   9.982328936E+01  -4.186642861E+00  -9.801179919E+01   9.982280179E-05
   1.337300000E-02   9.975512132E+01  -1.488184768E+01  -9.799952766E+01   9.975462853E-05
   1.337400000E-02   9.967348261E+01  -2.748835003E+01  -9.800163291E+01   9.967299639E-05
   1.337500000E-02   9.965706993E+01  -2.988818543E+01  -9.801466800E+01   9.965658387E-05
   1.337600000E-02   9.965614772E+01  -2.988790908E+01  -9.802720258E+01   9.965566070E-05
   1.337700000E-02   9.965522463E+01  -2.988763098E+01  -9.803867417E+01   9.965473080E-05
   1.337800000E-02   9.965428929E+01  -2.988735103E+01  -9.804913996E+01   9.965379970E-05
   1.337900000E-02   9.965335110E+01  -2.988706916E+01  -9.805870265E+01   9.965286269E-05
   1.338000000E-02   9.974963331E+01  -1.493379103E+01  -9.806369872E+01   9.974914094E-05
   1.338100000E-02   9.984846012E+01  -9.981518624E-03  -9.803527854E+01   9.984797077E-05
   1.338200000E-02   9.982328530E+01  -4.187444999E+00  -9.801179680E+01   9.982279773E-05
   1.338300000E-02   9.975508953E+01  -1.488700754E+01  -9.799952445E+01   9.975459674E-05
   1.338400000E-02   9.967352679E+01  -2.748178190E+01  -9.800162473E+01   9.967304056E-05
   1.338500000E-02   9.965706957E+01  -2.988818532E+01  -9.801467316E+01   9.965658351E-05
   1.338600000E-02   9.965614806E+01  -2.988790918E+01  -9.802719803E+01   9.965566104E-05
   1.338700000E-02   9.965522513E+01  -2.988763113E+01  -9.803866806E+01   9.965473131E-05
   1.338800000E-02   9.965428909E+01  -2.988735097E+01  -9.804914218E+01   9.965379950E-05
   1.338900000E-02   9.965335073E+01  -2.988707060E+01  -9.805870631E+01   9.965286233E-05
   1.339000000E-02   9.974955961E+01  -1.494513740E+01  -9.806370098E+01   9.974906724E-05
   1.339100000E-02   9.984846570E+01  -9.981519056E-03  -9.803526493E+01   9.984797158E-05
   1.339200000E-02   9.982329726E+01  -4.186018202E+00  -9.801179715E+01   9.982280740E-05
   1.339300000E-02   9.975508054E+01  -1.488860735E+01  -9.799952126E+01   9.975458775E-05
   1.339400000E-02   9.967349503E+01  -2.748684040E+01  -9.800162374E+01   9.967300880E-05
   1.339500000E-02   9.965707239E+01  -2.988818531E+01  -9.801466893E+01   9.965658347E-05
   1.339600000E-02   9.965614770E+01  -2.988790907E+01  -9.802720142E+01   9.965566068E-05
   1.339700000E-02   9.965522477E+01  -2.988763102E+01  -9.803867245E+01   9.965473686E-05
   1.339800000E-02   9.965429563E+01  -2.988735107E+01  -9.804913840E+01   9.965380121E-05
   1.339900000E-02   9.965335816E+01  -2.988707054E+01  -9.805870833E+01   9.965286212E-05
   1.340000000E-02   9.974948952E+01  -1.495651410E+01  -9.806370324E+01   9.974899698E-05
   1.340100000E-02   9.984846652E+01  -9.981519720E-03  -9.803524941E+01   9.984797240E-05
   1.340200000E-02   9.982328290E+01  -4.188475182E+00  -9.801178641E+01   9.982279305E-05
   1.340300000E-02   9.975510196E+01  -1.488545465E+01  -9.799952342E+01   9.975460917E-05
   1.340400000E-02   9.967348985E+01  -2.748781837E+01  -9.800162438E+01   9.967300362E-05
   1.340500000E-02   9.965707734E+01  -2.988818537E+01  -9.801466636E+01   9.965658365E-05
   1.340600000E-02   9.965615583E+01  -2.988790922E+01  -9.802719472E+01   9.965566119E-05
   1.340700000E-02   9.965522599E+01  -2.988763096E+01  -9.803866867E+01   9.965473666E-05
   1.340800000E-02   9.965429527E+01  -2.988735096E+01  -9.804913477E+01   9.965380084E-05
   1.340900000E-02   9.965335851E+01  -2.988707065E+01  -9.805870345E+01   9.965286838E-05
   1.341000000E-02   9.974986703E+01  -1.489839463E+01  -9.806368786E+01   9.974937450E-05
   1.341100000E-02   9.984846538E+01  -9.981519605E-03  -9.803526437E+01   9.984797126E-05
   1.341200000E-02   9.982330287E+01  -4.185370069E+00  -9.801179816E+01   9.982281301E-05
   1.341300000E-02   9.975509298E+01  -1.488703591E+01  -9.799951717E+01   9.975460019E-05
   1.341400000E-02   9.967350745E+01  -2.748529768E+01  -9.800162219E+01   9.967302122E-05
   1.341500000E-02   9.965707515E+01  -2.988818547E+01  -9.801467089E+01   9.965658764E-05
   1.341600000E-02   9.965615343E+01  -2.988790928E+01  -9.802720175E+01   9.965566498E-05
   1.341700000E-02   9.965522336E+01  -2.988763096E+01  -9.803868142E+01   9.965473431E-05
   1.341800000E-02   9.965429266E+01  -2.988735251E+01  -9.804914580E+01   9.965380308E-05
   1.341900000E-02   9.965335569E+01  -2.988707090E+01  -9.805870691E+01   9.965286586E-05
   1.342000000E-02   9.974934193E+01  -1.497923813E+01  -9.806370013E+01   9.974884938E-05
   1.342100000E-02   9.984846620E+01  -9.981519687E-03  -9.803525361E+01   9.984797663E-05
   1.342200000E-02   9.982328851E+01  -4.187819155E+00  -9.801178971E+01   9.982280084E-05
   1.342300000E-02   9.975511439E+01  -1.488387358E+01  -9.799951933E+01   9.975462160E-05
   1.342400000E-02   9.967347569E+01  -2.749033834E+01  -9.800162615E+01   9.967298946E-05
   1.342500000E-02   9.965707748E+01  -2.988818732E+01  -9.801466149E+01   9.965658379E-05
   1.342600000E-02   9.965615527E+01  -2.988790941E+01  -9.802719600E+01   9.965566654E-05
   1.342700000E-02   9.965522597E+01  -2.988763251E+01  -9.803866749E+01   9.965473800E-05
   1.342800000E-02   9.965429541E+01  -2.988735291E+01  -9.804913321E+01   9.965380690E-05
   1.342900000E-02   9.965335865E+01  -2.988707105E+01  -9.805869582E+01   9.965286989E-05
   1.343000000E-02   9.974972326E+01  -1.492111865E+01  -9.806368857E+01   9.974923053E-05
   1.343100000E-02   9.984846506E+01  -9.981519573E-03  -9.803526570E+01   9.984797822E-05
   1.343200000E-02   9.982328445E+01  -4.188593513E+00  -9.801178198E+01   9.982279678E-05
   1.343300000E-02   9.975508260E+01  -1.488899458E+01  -9.799951384E+01   9.975458981E-05
   1.343400000E-02   9.967351987E+01  -2.748373018E+01  -9.800161797E+01   9.967303364E-05
   1.343500000E-02   9.965707712E+01  -2.988818721E+01  -9.801466666E+01   9.965658615E-05
   1.343600000E-02   9.965615561E+01  -2.988791107E+01  -9.802719145E+01   9.965566688E-05
   1.343700000E-02   9.965522648E+01  -2.988763302E+01  -9.803866139E+01   9.965473850E-05
   1.343800000E-02   9.965429521E+01  -2.988735285E+01  -9.804913542E+01   9.965380670E-05
   1.343900000E-02   9.965335828E+01  -2.988707094E+01  -9.805869948E+01   9.965286952E-05
   1.344000000E-02   9.974919813E+01  -1.500196120E+01  -9.806370466E+01   9.974870544E-05
   1.344100000E-02   9.984846874E+01  -9.981519655E-03  -9.803525496E+01   9.984797904E-05
   1.344200000E-02   9.982329413E+01  -4.187138991E+00  -9.801178768E+01   9.982280646E-05
   1.344300000E-02   9.975512681E+01  -1.488225951E+01  -9.799951829E+01   9.975463403E-05
   1.344400000E-02   9.967348811E+01  -2.748875242E+01  -9.800162193E+01   9.967299715E-05
   1.344500000E-02   9.965707709E+01  -2.988818720E+01  -9.801466721E+01   9.965659067E-05
   1.344600000E-02   9.965615525E+01  -2.988791096E+01  -9.802719626E+01   9.965566788E-05
   1.344700000E-02   9.965523232E+01  -2.988763291E+01  -9.803866578E+01   9.965473814E-05
   1.344800000E-02   9.965429698E+01  -2.988735295E+01  -9.804913164E+01   9.965380704E-05
   1.344900000E-02   9.965335879E+01  -2.988707264E+01  -9.805869438E+01   9.965287003E-05
   1.345000000E-02   9.974957566E+01  -1.494384173E+01  -9.806368928E+01   9.974908294E-05
   1.345100000E-02   9.984846956E+01  -9.981519737E-03  -9.803523944E+01   9.984797985E-05
   1.345200000E-02   9.982327977E+01  -4.189570954E+00  -9.801177694E+01   9.982279210E-05
   1.345300000E-02   9.975509503E+01  -1.488736716E+01  -9.799951509E+01   9.975460224E-05
   1.345400000E-02   9.967353228E+01  -2.748213091E+01  -9.800161147E+01   9.967304133E-05
   1.345500000E-02   9.965707726E+01  -2.988818725E+01  -9.801465986E+01   9.965659085E-05
   1.345600000E-02   9.965615575E+01  -2.988791111E+01  -9.802718814E+01   9.965566838E-05
   1.345700000E-02   9.965523212E+01  -2.988763285E+01  -9.803866200E+01   9.965473794E-05
   1.345800000E-02   9.965429662E+01  -2.988735284E+01  -9.804912802E+01   9.965380668E-05
   1.345900000E-02   9.965335843E+01  -2.988707253E+01  -9.805869662E+01   9.965286967E-05
   1.346000000E-02   9.974950165E+01  -1.495523506E+01  -9.806368773E+01   9.974900894E-05
   1.346100000E-02   9.984847319E+01  -9.981519623E-03  -9.803525439E+01   9.984797872E-05
   1.346200000E-02   9.982330203E+01  -4.186440379E+00  -9.801178869E+01   9.982281207E-05
   1.346300000E-02   9.975508604E+01  -1.488891466E+01  -9.799950884E+01   9.975459325E-05
   1.346400000E-02   9.967350052E+01  -2.748713914E+01  -9.800161542E+01   9.967300957E-05
   1.346500000E-02   9.965707975E+01  -2.988818714E+01  -9.801466502E+01   9.965659049E-05
   1.346600000E-02   9.965615540E+01  -2.988791100E+01  -9.802719296E+01   9.965566802E-05
   1.346700000E-02   9.965523246E+01  -2.988763295E+01  -9.803865786E+01   9.965473828E-05
   1.346800000E-02   9.965429712E+01  -2.988735299E+01  -9.804912245E+01   9.965380718E-05
   1.346900000E-02   9.965336443E+01  -2.988707247E+01  -9.805869244E+01   9.965286946E-05
   1.347000000E-02   9.974943188E+01  -1.496656480E+01  -9.806368998E+01   9.974893535E-05
   1.347100000E-02   9.984847401E+01  -9.981520054E-03  -9.803524364E+01   9.984797953E-05
   1.347200000E-02   9.982328767E+01  -4.188863422E+00  -9.801178024E+01   9.982279771E-05
   1.347300000E-02   9.975510746E+01  -1.488571332E+01  -9.799951100E+01   9.975461467E-05
   1.347400000E-02   9.967349535E+01  -2.748806852E+01  -9.800161607E+01   9.967300185E-05
   1.347500000E-02   9.965708026E+01  -2.988818729E+01  -9.801465499E+01   9.965659099E-05
   1.347600000E-02   9.965616210E+01  -2.988791115E+01  -9.802718006E+01   9.965566852E-05
   1.347700000E-02   9.965523369E+01  -2.988763289E+01  -9.803865886E+01   9.965473808E-05
   1.347800000E-02   9.965430296E+01  -2.988735444E+01  -9.804912645E+01   9.965380682E-05
   1.347900000E-02   9.965336620E+01  -2.988707293E+01  -9.805868898E+01   9.965286981E-05
   1.348000000E-02   9.974980938E+01  -1.490844627E+01  -9.806367842E+01   9.974931285E-05
   1.348100000E-02   9.984847287E+01  -9.981519941E-03  -9.803525573E+01   9.984797840E-05
   1.348200000E-02   9.982328361E+01  -4.189615983E+00  -9.801177251E+01   9.982279365E-05
   1.348300000E-02   9.975507567E+01  -1.489080337E+01  -9.799950551E+01   9.975458288E-05
   1.348400000E-02   9.967351294E+01  -2.748550364E+01  -9.800161388E+01   9.967301943E-05
   1.348500000E-02   9.965708468E+01  -2.988818790E+01  -9.801466015E+01   9.965659063E-05
   1.348600000E-02   9.965616317E+01  -2.988791104E+01  -9.802718487E+01   9.965566816E-05
   1.348700000E-02   9.965523403E+01  -2.988763299E+01  -9.803865472E+01   9.965474434E-05
   1.348800000E-02   9.965430276E+01  -2.988735438E+01  -9.804912867E+01   9.965380798E-05
   1.348900000E-02   9.965336583E+01  -2.988707282E+01  -9.805869264E+01   9.965286944E-05
   1.349000000E-02   9.974928428E+01  -1.498928883E+01  -9.806369450E+01   9.974878775E-05
   1.349100000E-02   9.984847369E+01  -9.981520605E-03  -9.803524498E+01   9.984797921E-05
   1.349200000E-02   9.982329329E+01  -4.188139451E+00  -9.801177821E+01   9.982280333E-05
   1.349300000E-02   9.975511988E+01  -1.488403646E+01  -9.799950997E+01   9.975462710E-05
   1.349400000E-02   9.967348118E+01  -2.749049593E+01  -9.800161516E+01   9.967298768E-05
   1.349500000E-02   9.965708517E+01  -2.988818924E+01  -9.801465297E+01   9.965659113E-05
   1.349600000E-02   9.965616297E+01  -2.988791134E+01  -9.802718753E+01   9.965566796E-05
   1.349700000E-02   9.965523367E+01  -2.988763444E+01  -9.803865911E+01   9.965474398E-05
   1.349800000E-02   9.965430310E+01  -2.988735484E+01  -9.804912488E+01   9.965380832E-05
   1.349900000E-02   9.965336634E+01  -2.988707297E+01  -9.805868755E+01   9.965286995E-05
   1.350000000E-02   9.974966179E+01  -1.493116935E+01  -9.806368294E+01   9.974916890E-05
   1.350100000E-02   9.984847255E+01  -9.981520490E-03  -9.803525517E+01   9.984797808E-05
   1.350200000E-02   9.982328923E+01  -4.188883496E+00  -9.801177353E+01   9.982279927E-05
   1.350300000E-02   9.975508810E+01  -1.488911520E+01  -9.799950676E+01   9.975459531E-05
   1.350400000E-02   9.967352536E+01  -2.748384582E+01  -9.800160965E+01   9.967303185E-05
   1.350500000E-02   9.965708482E+01  -2.988818913E+01  -9.801465813E+01   9.965659077E-05
   1.350600000E-02   9.965616331E+01  -2.988791299E+01  -9.802718299E+01   9.965566830E-05
   1.350700000E-02   9.965523417E+01  -2.988763494E+01  -9.803865300E+01   9.965474448E-05
   1.350800000E-02   9.965430290E+01  -2.988735478E+01  -9.804912090E+01   9.965380812E-05
   1.350900000E-02   9.965336598E+01  -2.988707286E+01  -9.805868979E+01   9.965286959E-05
   1.351000000E-02   9.974958817E+01  -1.494250346E+01  -9.806368138E+01   9.974909528E-05
   1.351100000E-02   9.984847337E+01  -9.981520573E-03  -9.803524442E+01   9.984797890E-05
   1.351200000E-02   9.982329890E+01  -4.187400383E+00  -9.801177922E+01   9.982280894E-05
   1.351300000E-02   9.975513231E+01  -1.488233981E+01  -9.799951122E+01   9.975463952E-05
   1.351400000E-02   9.967349360E+01  -2.748882733E+01  -9.800161362E+01   9.967300009E-05
   1.351500000E-02   9.965708478E+01  -2.988818912E+01  -9.801465391E+01   9.965659073E-05
   1.351600000E-02   9.965616295E+01  -2.988791288E+01  -9.802718638E+01   9.965566794E-05
   1.351700000E-02   9.965523381E+01  -2.988763483E+01  -9.803865739E+01   9.965474412E-05
   1.351800000E-02   9.965430325E+01  -2.988735488E+01  -9.804911712E+01   9.965380847E-05
   1.351900000E-02   9.965336577E+01  -2.988707435E+01  -9.805869182E+01   9.965287530E-05
   1.352000000E-02   9.974951801E+01  -1.495389242E+01  -9.806367983E+01   9.974902130E-05
   1.352100000E-02   9.984847705E+01  -9.981520655E-03  -9.803523367E+01   9.984797971E-05
   1.352200000E-02   9.982328454E+01  -4.189804661E+00  -9.801177077E+01   9.982279458E-05
   1.352300000E-02   9.975510053E+01  -1.488740739E+01  -9.799950801E+01   9.975460774E-05
   1.352400000E-02   9.967348841E+01  -2.748973323E+01  -9.800160930E+01   9.967299491E-05
   1.352500000E-02   9.965708495E+01  -2.988818918E+01  -9.801465134E+01   9.965659091E-05
   1.352600000E-02   9.965616345E+01  -2.988791303E+01  -9.802717968E+01   9.965566845E-05
   1.352700000E-02   9.965523361E+01  -2.988763477E+01  -9.803865361E+01   9.965474392E-05
   1.352800000E-02   9.965430288E+01  -2.988735477E+01  -9.804911969E+01   9.965381402E-05
   1.352900000E-02   9.965336612E+01  -2.988707446E+01  -9.805868215E+01   9.965287700E-05
   1.353000000E-02   9.974944370E+01  -1.496533271E+01  -9.806368211E+01   9.974894699E-05
   1.353100000E-02   9.984847591E+01  -9.981520540E-03  -9.803524862E+01   9.984797858E-05
   1.353200000E-02   9.982330452E+01  -4.186646897E+00  -9.801178252E+01   9.982281455E-05
   1.353300000E-02   9.975509154E+01  -1.488891595E+01  -9.799950177E+01   9.975459875E-05
   1.353400000E-02   9.967350601E+01  -2.748714157E+01  -9.800160711E+01   9.967301251E-05
   1.353500000E-02   9.965708460E+01  -2.988818907E+01  -9.801465650E+01   9.965659055E-05
   1.353600000E-02   9.965616309E+01  -2.988791293E+01  -9.802718449E+01   9.965566809E-05
   1.353700000E-02   9.965524015E+01  -2.988763488E+01  -9.803864947E+01   9.965474426E-05
   1.353800000E-02   9.965430482E+01  -2.988735492E+01  -9.804911412E+01   9.965381452E-05
   1.353900000E-02   9.965336592E+01  -2.988707440E+01  -9.805868418E+01   9.965287680E-05
   1.354000000E-02   9.974937041E+01  -1.497661550E+01  -9.806368435E+01   9.974887370E-05
   1.354100000E-02   9.984847673E+01  -9.981520623E-03  -9.803523501E+01   9.984798394E-05
   1.354200000E-02   9.982329016E+01  -4.189045237E+00  -9.801177407E+01   9.982280238E-05
   1.354300000E-02   9.975511295E+01  -1.488568065E+01  -9.799950393E+01   9.975462017E-05
   1.354400000E-02   9.967347425E+01  -2.749210782E+01  -9.800161107E+01   9.967298075E-05
   1.354500000E-02   9.965708509E+01  -2.988818922E+01  -9.801464647E+01   9.965659105E-05
   1.354600000E-02   9.965616289E+01  -2.988791287E+01  -9.802718716E+01   9.965566789E-05
   1.354700000E-02   9.965523979E+01  -2.988763477E+01  -9.803865386E+01   9.965474390E-05
   1.354800000E-02   9.965430445E+01  -2.988735481E+01  -9.804911813E+01   9.965381416E-05
   1.354900000E-02   9.965336626E+01  -2.988707450E+01  -9.805868072E+01   9.965287715E-05
   1.355000000E-02   9.974974793E+01  -1.491849601E+01  -9.806367279E+01   9.974925122E-05
   1.355100000E-02   9.984848036E+01  -9.981520508E-03  -9.803524996E+01   9.984798280E-05
   1.355200000E-02   9.982328838E+01  -4.189772802E+00  -9.801176634E+01   9.982279832E-05
   1.355300000E-02   9.975508117E+01  -1.489073607E+01  -9.799949843E+01   9.975458838E-05
   1.355400000E-02   9.967351843E+01  -2.748543607E+01  -9.800160556E+01   9.967302493E-05
   1.355500000E-02   9.965708474E+01  -2.988818911E+01  -9.801465163E+01   9.965659069E-05
   1.355600000E-02   9.965616323E+01  -2.988791297E+01  -9.802717641E+01   9.965567414E-05
   1.355700000E-02   9.965524029E+01  -2.988763492E+01  -9.803864633E+01   9.965474576E-05
   1.355800000E-02   9.965430425E+01  -2.988735475E+01  -9.804912035E+01   9.965381396E-05
   1.355900000E-02   9.965336590E+01  -2.988707439E+01  -9.805868438E+01   9.965287678E-05
   1.356000000E-02   9.974922281E+01  -1.499933857E+01  -9.806368887E+01   9.974872976E-05
   1.356100000E-02   9.984848118E+01  -9.981520590E-03  -9.803523921E+01   9.984798635E-05
   1.356200000E-02   9.982329806E+01  -4.188273066E+00  -9.801177204E+01   9.982280799E-05
   1.356300000E-02   9.975512538E+01  -1.488393646E+01  -9.799950289E+01   9.975463259E-05
   1.356400000E-02   9.967348667E+01  -2.749039536E+01  -9.800160952E+01   9.967299317E-05
   1.356500000E-02   9.965708755E+01  -2.988818910E+01  -9.801465218E+01   9.965659065E-05
   1.356600000E-02   9.965616287E+01  -2.988791286E+01  -9.802718122E+01   9.965567378E-05
   1.356700000E-02   9.965523993E+01  -2.988763481E+01  -9.803865072E+01   9.965474540E-05
   1.356800000E-02   9.965430459E+01  -2.988735640E+01  -9.804911656E+01   9.965381430E-05
   1.356900000E-02   9.965337260E+01  -2.988707490E+01  -9.805867929E+01   9.965287729E-05
   1.357000000E-02   9.974960414E+01  -1.494122004E+01  -9.806367731E+01   9.974910726E-05
   1.357100000E-02   9.984848200E+01  -9.981520673E-03  -9.803522369E+01   9.984798716E-05
   1.357200000E-02   9.982328370E+01  -4.190662532E+00  -9.801176130E+01   9.982279363E-05
   1.357300000E-02   9.975509359E+01  -1.488898425E+01  -9.799949969E+01   9.975460081E-05
   1.357400000E-02   9.967353085E+01  -2.748371599E+01  -9.800160134E+01   9.967303734E-05
   1.357500000E-02   9.965708773E+01  -2.988818987E+01  -9.801464961E+01   9.965659083E-05
   1.357600000E-02   9.965616957E+01  -2.988791301E+01  -9.802717453E+01   9.965567428E-05
   1.357700000E-02   9.965524116E+01  -2.988763475E+01  -9.803865315E+01   9.965474520E-05
   1.357800000E-02   9.965431043E+01  -2.988735630E+01  -9.804912057E+01   9.965381394E-05
   1.357900000E-02   9.965337367E+01  -2.988707479E+01  -9.805868295E+01   9.965287693E-05
   1.358000000E-02   9.974953022E+01  -1.495260111E+01  -9.806367576E+01   9.974903333E-05
   1.358100000E-02   9.984848086E+01  -9.981520558E-03  -9.803523865E+01   9.984798603E-05
   1.358200000E-02   9.982330368E+01  -4.187489826E+00  -9.801177305E+01   9.982281361E-05
   1.358300000E-02   9.975508460E+01  -1.489047283E+01  -9.799949878E+01   9.975459181E-05
   1.358400000E-02   9.967349909E+01  -2.748866697E+01  -9.800160530E+01   9.967300558E-05
   1.358500000E-02   9.965708737E+01  -2.988818976E+01  -9.801465478E+01   9.965659319E-05
   1.358600000E-02   9.965616921E+01  -2.988791290E+01  -9.802717934E+01   9.965567392E-05
   1.358700000E-02   9.965524150E+01  -2.988763485E+01  -9.803864900E+01   9.965474554E-05
   1.358800000E-02   9.965431094E+01  -2.988735645E+01  -9.804910880E+01   9.965381444E-05
   1.358900000E-02   9.965337347E+01  -2.988707473E+01  -9.805868355E+01   9.965287672E-05
   1.359000000E-02   9.974945655E+01  -1.496394312E+01  -9.806367802E+01   9.974895966E-05
   1.359100000E-02   9.984848168E+01  -9.981520640E-03  -9.803522790E+01   9.984798685E-05
   1.359200000E-02   9.982328931E+01  -4.189874007E+00  -9.801176460E+01   9.982279925E-05
   1.359300000E-02   9.975510602E+01  -1.488721702E+01  -9.799950094E+01   9.975461323E-05
   1.359400000E-02   9.967349391E+01  -2.748954202E+01  -9.800160595E+01   9.967300041E-05
   1.359500000E-02   9.965709265E+01  -2.988819110E+01  -9.801464759E+01   9.965659369E-05
   1.359600000E-02   9.965617114E+01  -2.988791341E+01  -9.802717265E+01   9.965567442E-05
   1.359700000E-02   9.965524130E+01  -2.988763634E+01  -9.803865143E+01   9.965474534E-05
   1.359800000E-02   9.965431058E+01  -2.988735670E+01  -9.804911280E+01   9.965381408E-05
   1.359900000E-02   9.965337381E+01  -2.988707483E+01  -9.805868009E+01   9.965287707E-05
   1.360000000E-02   9.974983405E+01  -1.490582363E+01  -9.806366264E+01   9.974933716E-05
   1.360100000E-02   9.984848054E+01  -9.981520876E-03  -9.803524285E+01   9.984798571E-05
   1.360200000E-02   9.982330929E+01  -4.186696192E+00  -9.801177635E+01   9.982281413E-05
   1.360300000E-02   9.975509704E+01  -1.488869632E+01  -9.799950003E+01   9.975460207E-05
   1.360400000E-02   9.967351151E+01  -2.748692457E+01  -9.800160375E+01   9.967301800E-05
   1.360500000E-02   9.965709229E+01  -2.988819100E+01  -9.801464798E+01   9.965659789E-05
   1.360600000E-02   9.965617078E+01  -2.988791485E+01  -9.802717603E+01   9.965567542E-05
   1.360700000E-02   9.965524164E+01  -2.988763680E+01  -9.803864729E+01   9.965474568E-05
   1.360800000E-02   9.965431037E+01  -2.988735663E+01  -9.804911501E+01   9.965381388E-05
   1.360900000E-02   9.965337345E+01  -2.988707472E+01  -9.805868376E+01   9.965287670E-05
   1.361000000E-02   9.974930895E+01  -1.498666620E+01  -9.806367872E+01   9.974881207E-05
   1.361100000E-02   9.984848136E+01  -9.981520957E-03  -9.803523210E+01   9.984798653E-05
   1.361200000E-02   9.982329493E+01  -4.189075418E+00  -9.801176791E+01   9.982279977E-05
   1.361300000E-02   9.975511845E+01  -1.488543483E+01  -9.799950219E+01   9.975462348E-05
   1.361400000E-02   9.967347975E+01  -2.749186602E+01  -9.800160771E+01   9.967298624E-05
   1.361500000E-02   9.965709278E+01  -2.988819114E+01  -9.801464080E+01   9.965659839E-05
   1.361600000E-02   9.965617058E+01  -2.988791479E+01  -9.802717870E+01   9.965567522E-05
   1.361700000E-02   9.965524128E+01  -2.988763669E+01  -9.803864547E+01   9.965474532E-05
   1.361800000E-02   9.965431072E+01  -2.988735674E+01  -9.804910981E+01   9.965381422E-05
   1.361900000E-02   9.965337395E+01  -2.988707487E+01  -9.805867246E+01   9.965287721E-05
   1.362000000E-02   9.974968646E+01  -1.492854671E+01  -9.806366716E+01   9.974918957E-05
   1.362100000E-02   9.984848022E+01  -9.981520844E-03  -9.803524419E+01   9.984798539E-05
   1.362200000E-02   9.982329087E+01  -4.189784978E+00  -9.801176552E+01   9.982279571E-05
   1.362300000E-02   9.975508666E+01  -1.489046397E+01  -9.799949899E+01   9.975458660E-05
   1.362400000E-02   9.967352392E+01  -2.748516824E+01  -9.800159725E+01   9.967303042E-05
   1.362500000E-02   9.965709243E+01  -2.988819104E+01  -9.801464596E+01   9.965659803E-05
   1.362600000E-02   9.965617092E+01  -2.988791489E+01  -9.802717415E+01   9.965567556E-05
   1.362700000E-02   9.965524178E+01  -2.988763685E+01  -9.803863937E+01   9.965474583E-05
   1.362800000E-02   9.965431052E+01  -2.988735668E+01  -9.804911202E+01   9.965381402E-05
   1.362900000E-02   9.965337359E+01  -2.988707632E+01  -9.805867612E+01   9.965287685E-05
   1.363000000E-02   9.974961292E+01  -1.493986856E+01  -9.806366941E+01   9.974911603E-05
   1.363100000E-02   9.984848104E+01  -9.981520926E-03  -9.803523344E+01   9.984798621E-05
   1.363200000E-02   9.982330054E+01  -4.188268104E+00  -9.801177121E+01   9.982280538E-05
   1.363300000E-02   9.975513087E+01  -1.488364091E+01  -9.799949811E+01   9.975463081E-05
   1.363400000E-02   9.967349216E+01  -2.749010397E+01  -9.800160121E+01   9.967299866E-05
   1.363500000E-02   9.965709239E+01  -2.988819103E+01  -9.801464651E+01   9.965659799E-05
   1.363600000E-02   9.965617056E+01  -2.988791479E+01  -9.802717897E+01   9.965567520E-05
   1.363700000E-02   9.965524142E+01  -2.988763674E+01  -9.803864376E+01   9.965474546E-05
   1.363800000E-02   9.965431086E+01  -2.988735678E+01  -9.804910824E+01   9.965381437E-05
   1.363900000E-02   9.965337339E+01  -2.988707626E+01  -9.805867815E+01   9.965287664E-05
   1.364000000E-02   9.974953886E+01  -1.495126979E+01  -9.806367168E+01   9.974904198E-05
   1.364100000E-02   9.984848186E+01  -9.981521007E-03  -9.803522270E+01   9.984798702E-05
   1.364200000E-02   9.982328618E+01  -4.190641092E+00  -9.801175742E+01   9.982279102E-05
   1.364300000E-02   9.975509909E+01  -1.488866418E+01  -9.799949261E+01   9.975459903E-05
   1.364400000E-02   9.967348697E+01  -2.749096450E+01  -9.800160185E+01   9.967299347E-05
   1.364500000E-02   9.965709257E+01  -2.988819108E+01  -9.801464394E+01   9.965659817E-05
   1.364600000E-02   9.965617106E+01  -2.988791494E+01  -9.802717227E+01   9.965567570E-05
   1.364700000E-02   9.965524122E+01  -2.988763668E+01  -9.803864618E+01   9.965474526E-05
   1.364800000E-02   9.965431050E+01  -2.988735667E+01  -9.804911225E+01   9.965381400E-05
   1.364900000E-02   9.965337373E+01  -2.988707636E+01  -9.805867469E+01   9.965287699E-05
   1.365000000E-02   9.974946845E+01  -1.496269782E+01  -9.806367396E+01   9.974896775E-05
   1.365100000E-02   9.984848072E+01  -9.981521475E-03  -9.803523764E+01   9.984798589E-05
   1.365200000E-02   9.982330616E+01  -4.187452074E+00  -9.801176917E+01   9.982281100E-05
   1.365300000E-02   9.975509010E+01  -1.489013042E+01  -9.799949171E+01   9.975459004E-05
   1.365400000E-02   9.967350458E+01  -2.748832981E+01  -9.800159966E+01   9.967301108E-05
   1.365500000E-02   9.965709221E+01  -2.988819097E+01  -9.801464625E+01   9.965659781E-05
   1.365600000E-02   9.965617070E+01  -2.988791483E+01  -9.802717088E+01   9.965567534E-05
   1.365700000E-02   9.965524156E+01  -2.988763678E+01  -9.803864061E+01   9.965474561E-05
   1.365800000E-02   9.965431100E+01  -2.988735682E+01  -9.804910667E+01   9.965381451E-05
   1.365900000E-02   9.965337353E+01  -2.988707630E+01  -9.805867671E+01   9.965287679E-05
   1.366000000E-02   9.974939508E+01  -1.497399286E+01  -9.806367620E+01   9.974889439E-05
   1.366100000E-02   9.984848440E+01  -9.981521558E-03  -9.803522690E+01   9.984798670E-05
   1.366200000E-02   9.982329180E+01  -4.189821098E+00  -9.801176072E+01   9.982279664E-05
   1.366300000E-02   9.975511152E+01  -1.488685281E+01  -9.799949386E+01   9.975461145E-05
   1.366400000E-02   9.967347282E+01  -2.749325723E+01  -9.800160362E+01   9.967297932E-05
   1.366500000E-02   9.965709271E+01  -2.988819112E+01  -9.801463907E+01   9.965659831E-05
   1.366600000E-02   9.965617050E+01  -2.988791477E+01  -9.802717354E+01   9.965567515E-05
   1.366700000E-02   9.965524120E+01  -2.988763667E+01  -9.803864500E+01   9.965474524E-05
   1.366800000E-02   9.965431064E+01  -2.988735671E+01  -9.804911068E+01   9.965381414E-05
   1.366900000E-02   9.965337387E+01  -2.988707640E+01  -9.805867326E+01   9.965287713E-05
   1.367000000E-02   9.974977260E+01  -1.491587338E+01  -9.806366464E+01   9.974927189E-05
   1.367100000E-02   9.984848326E+01  -9.981521443E-03  -9.803523708E+01   9.984798557E-05
   1.367200000E-02   9.982328773E+01  -4.190521159E+00  -9.801175604E+01   9.982279257E-05
   1.367300000E-02   9.975507973E+01  -1.489186831E+01  -9.799949066E+01   9.975457967E-05
   1.367400000E-02   9.967351700E+01  -2.748654611E+01  -9.800159811E+01   9.967302349E-05
   1.367500000E-02   9.965709235E+01  -2.988819101E+01  -9.801464423E+01   9.965659795E-05
   1.367600000E-02   9.965617084E+01  -2.988791487E+01  -9.802716900E+01   9.965567549E-05
   1.367700000E-02   9.965524170E+01  -2.988763682E+01  -9.803863890E+01   9.965474575E-05
   1.367800000E-02   9.965431044E+01  -2.988735665E+01  -9.804911290E+01   9.965381394E-05
   1.367900000E-02   9.965337351E+01  -2.988707629E+01  -9.805867692E+01   9.965287677E-05
   1.368000000E-02   9.974924748E+01  -1.499671594E+01  -9.806368072E+01   9.974874680E-05
   1.368100000E-02   9.984848408E+01  -9.981521525E-03  -9.803522633E+01   9.984798639E-05
   1.368200000E-02   9.982329741E+01  -4.188994056E+00  -9.801176174E+01   9.982280225E-05
   1.368300000E-02   9.975512394E+01  -1.488503175E+01  -9.799949512E+01   9.975462388E-05
   1.368400000E-02   9.967348524E+01  -2.749146781E+01  -9.800160207E+01   9.967299174E-05
   1.368500000E-02   9.965709285E+01  -2.988819116E+01  -9.801463705E+01   9.965659845E-05
   1.368600000E-02   9.965617064E+01  -2.988791481E+01  -9.802717166E+01   9.965567529E-05
   1.368700000E-02   9.965524134E+01  -2.988763671E+01  -9.803864329E+01   9.965474538E-05
   1.368800000E-02   9.965431078E+01  -2.988735676E+01  -9.804910911E+01   9.965381429E-05
   1.368900000E-02   9.965337402E+01  -2.988707644E+01  -9.805867183E+01   9.965287727E-05
   1.369000000E-02   9.974962500E+01  -1.493859645E+01  -9.806366534E+01   9.974912430E-05
   1.369100000E-02   9.984848367E+01  -9.981521485E-03  -9.803523164E+01   9.984798598E-05
   1.369200000E-02   9.982329335E+01  -4.189689936E+00  -9.801175935E+01   9.982279819E-05
   1.369300000E-02   9.975509216E+01  -1.489004182E+01  -9.799949191E+01   9.975459209E-05
   1.369400000E-02   9.967352942E+01  -2.748475221E+01  -9.800159656E+01   9.967303591E-05
   1.369500000E-02   9.965709249E+01  -2.988819106E+01  -9.801464222E+01   9.965659809E-05
   1.369600000E-02   9.965617098E+01  -2.988791491E+01  -9.802716711E+01   9.965567563E-05
   1.369700000E-02   9.965524735E+01  -2.988763665E+01  -9.803864572E+01   9.965474518E-05
   1.369800000E-02   9.965431184E+01  -2.988735665E+01  -9.804911312E+01   9.965381392E-05
   1.369900000E-02   9.965337365E+01  -2.988707633E+01  -9.805867549E+01   9.965287691E-05
   1.370000000E-02   9.974955115E+01  -1.494996526E+01  -9.806366761E+01   9.974905045E-05
   1.370100000E-02   9.984848376E+01  -9.981521493E-03  -9.803523053E+01   9.984798607E-05
   1.370200000E-02   9.982330303E+01  -4.188160305E+00  -9.801176504E+01   9.982280787E-05
   1.370300000E-02   9.975508317E+01  -1.489149599E+01  -9.799949101E+01   9.975458310E-05
   1.370400000E-02   9.967349766E+01  -2.748966885E+01  -9.800159785E+01   9.967300415E-05
   1.370500000E-02   9.965709213E+01  -2.988819095E+01  -9.801464738E+01   9.965659773E-05
   1.370600000E-02   9.965617062E+01  -2.988791481E+01  -9.802717193E+01   9.965567527E-05
   1.370700000E-02   9.965524769E+01  -2.988763676E+01  -9.803864157E+01   9.965474553E-05
   1.370800000E-02   9.965431235E+01  -2.988735835E+01  -9.804910135E+01   9.965381443E-05
   1.370900000E-02   9.965337345E+01  -2.988707663E+01  -9.805867609E+01   9.965287671E-05
   1.371000000E-02   9.974947740E+01  -1.496132048E+01  -9.806366987E+01   9.974897670E-05
   1.371100000E-02   9.984848457E+01  -9.981521575E-03  -9.803521978E+01   9.984798688E-05
   1.371200000E-02   9.982328866E+01  -4.190521101E+00  -9.801175659E+01   9.982279351E-05
   1.371300000E-02   9.975510459E+01  -1.488820579E+01  -9.799949316E+01   9.975460452E-05
   1.371400000E-02   9.967349248E+01  -2.749051189E+01  -9.800159850E+01   9.967299897E-05
   1.371500000E-02   9.965709263E+01  -2.988819110E+01  -9.801464020E+01   9.965659823E-05
   1.371600000E-02   9.965617112E+01  -2.988791496E+01  -9.802716523E+01   9.965567577E-05
   1.371700000E-02   9.965524749E+01  -2.988763670E+01  -9.803864400E+01   9.965474533E-05
   1.371800000E-02   9.965431198E+01  -2.988735824E+01  -9.804910535E+01   9.965381407E-05
   1.371900000E-02   9.965337379E+01  -2.988707673E+01  -9.805867263E+01   9.965287705E-05
   1.372000000E-02   9.974985492E+01  -1.490320099E+01  -9.806365449E+01   9.974935420E-05
   1.372100000E-02   9.984848820E+01  -9.981521461E-03  -9.803523474E+01   9.984798575E-05
   1.372200000E-02   9.982331094E+01  -4.187320184E+00  -9.801176834E+01   9.982281348E-05
   1.372300000E-02   9.975509560E+01  -1.488965420E+01  -9.799949226E+01   9.975459554E-05
   1.372400000E-02   9.967351007E+01  -2.748786227E+01  -9.800159630E+01   9.967301657E-05
   1.372500000E-02   9.965709227E+01  -2.988819170E+01  -9.801464536E+01   9.965659787E-05
   1.372600000E-02   9.965617076E+01  -2.988791485E+01  -9.802717005E+01   9.965567541E-05
   1.372700000E-02   9.965524783E+01  -2.988763680E+01  -9.803863985E+01   9.965474567E-05
   1.372800000E-02   9.965431178E+01  -2.988735818E+01  -9.804910757E+01   9.965381386E-05
   1.372900000E-02   9.965337343E+01  -2.988707662E+01  -9.805867629E+01   9.965287669E-05
   1.373000000E-02   9.974932980E+01  -1.498404356E+01  -9.806367057E+01   9.974882911E-05
   1.373100000E-02   9.984848902E+01  -9.981521543E-03  -9.803522399E+01   9.984798656E-05
   1.373200000E-02   9.982329657E+01  -4.189678007E+00  -9.801175989E+01   9.982279912E-05
   1.373300000E-02   9.975511701E+01  -1.488636184E+01  -9.799949442E+01   9.975461695E-05
   1.373400000E-02   9.967347831E+01  -2.749277443E+01  -9.800160026E+01   9.967298008E-05
   1.373500000E-02   9.965709277E+01  -2.988819185E+01  -9.801463818E+01   9.965659837E-05
   1.373600000E-02   9.965617056E+01  -2.988791479E+01  -9.802717271E+01   9.965567521E-05
   1.373700000E-02   9.965524747E+01  -2.988763669E+01  -9.803864424E+01   9.965474531E-05
   1.373800000E-02   9.965431213E+01  -2.988735828E+01  -9.804910378E+01   9.965381421E-05
   1.373900000E-02   9.965337394E+01  -2.988707678E+01  -9.805867120E+01   9.965287719E-05
   1.374000000E-02   9.974970732E+01  -1.492592407E+01  -9.806365901E+01   9.974920661E-05
   1.374100000E-02   9.984848788E+01  -9.981521429E-03  -9.803523894E+01   9.984798543E-05
   1.374200000E-02   9.982329251E+01  -4.190366715E+00  -9.801175750E+01   9.982279506E-05
   1.374300000E-02   9.975508523E+01  -1.489136194E+01  -9.799949121E+01   9.975458516E-05
   1.374400000E-02   9.967352249E+01  -2.748604806E+01  -9.800159475E+01   9.967302426E-05
   1.374500000E-02   9.965709241E+01  -2.988819175E+01  -9.801464334E+01   9.965659801E-05
   1.374600000E-02   9.965617090E+01  -2.988791489E+01  -9.802716816E+01   9.965567555E-05
   1.374700000E-02   9.965524797E+01  -2.988763684E+01  -9.803863814E+01   9.965474581E-05
   1.374800000E-02   9.965431193E+01  -2.988735822E+01  -9.804910600E+01   9.965381401E-05
   1.374900000E-02   9.965337357E+01  -2.988707667E+01  -9.805866866E+01   9.965287683E-05
   1.375000000E-02   9.974963767E+01  -1.493723366E+01  -9.806366126E+01   9.974913315E-05
   1.375100000E-02   9.984848870E+01  -9.981521511E-03  -9.803522819E+01   9.984798624E-05
   1.375200000E-02   9.982330219E+01  -4.188829879E+00  -9.801176320E+01   9.982280474E-05
   1.375300000E-02   9.975512944E+01  -1.488451042E+01  -9.799949567E+01   9.975462938E-05
   1.375400000E-02   9.967349073E+01  -2.749095574E+01  -9.800159871E+01   9.967298995E-05
   1.375500000E-02   9.965709522E+01  -2.988819173E+01  -9.801464389E+01   9.965659797E-05
   1.375600000E-02   9.965617054E+01  -2.988791478E+01  -9.802717298E+01   9.965567519E-05
   1.375700000E-02   9.965524761E+01  -2.988763673E+01  -9.803863632E+01   9.965474545E-05
   1.375800000E-02   9.965431227E+01  -2.988735833E+01  -9.804910079E+01   9.965381435E-05
   1.375900000E-02   9.965338028E+01  -2.988707682E+01  -9.805866356E+01   9.965287734E-05
   1.376000000E-02   9.974956354E+01  -1.494864715E+01  -9.806366353E+01   9.974905902E-05
   1.376100000E-02   9.984848952E+01  -9.981521593E-03  -9.803521458E+01   9.984798706E-05
   1.376200000E-02   9.982328782E+01  -4.191183758E+00  -9.801175475E+01   9.982279037E-05
   1.376300000E-02   9.975509766E+01  -1.488950670E+01  -9.799949247E+01   9.975459759E-05
   1.376400000E-02   9.967353491E+01  -2.748422555E+01  -9.800159320E+01   9.967303412E-05
   1.376500000E-02   9.965709540E+01  -2.988819298E+01  -9.801463655E+01   9.965659815E-05
   1.376600000E-02   9.965617104E+01  -2.988791529E+01  -9.802716485E+01   9.965567569E-05
   1.376700000E-02   9.965524741E+01  -2.988763822E+01  -9.803863875E+01   9.965474525E-05
   1.376800000E-02   9.965431190E+01  -2.988735857E+01  -9.804910480E+01   9.965381399E-05
   1.376900000E-02   9.965337992E+01  -2.988707671E+01  -9.805866723E+01   9.965287697E-05
   1.377000000E-02   9.974948939E+01  -1.496006292E+01  -9.806366580E+01   9.974898487E-05
   1.377100000E-02   9.984848838E+01  -9.981521479E-03  -9.803522953E+01   9.984798593E-05
   1.377200000E-02   9.982330780E+01  -4.187976387E+00  -9.801176650E+01   9.982281035E-05
   1.377300000E-02   9.975508867E+01  -1.489094672E+01  -9.799949156E+01   9.975458860E-05
   1.377400000E-02   9.967350315E+01  -2.748913008E+01  -9.800159716E+01   9.967300237E-05
   1.377500000E-02   9.965709504E+01  -2.988819287E+01  -9.801464170E+01   9.965659780E-05
   1.377600000E-02   9.965617068E+01  -2.988791673E+01  -9.802716967E+01   9.965567533E-05
   1.377700000E-02   9.965524775E+01  -2.988763868E+01  -9.803863461E+01   9.965474559E-05
   1.377800000E-02   9.965431861E+01  -2.988735873E+01  -9.804909923E+01   9.965381449E-05
   1.377900000E-02   9.965338114E+01  -2.988707665E+01  -9.805866925E+01   9.965287677E-05
   1.378000000E-02   9.974941594E+01  -1.497137023E+01  -9.806366805E+01   9.974891143E-05
   1.378100000E-02   9.984848920E+01  -9.981521561E-03  -9.803521878E+01   9.984798674E-05
   1.378200000E-02   9.982329344E+01  -4.190327954E+00  -9.801175805E+01   9.982279599E-05
   1.378300000E-02   9.975511008E+01  -1.488764397E+01  -9.799949372E+01   9.975461002E-05
   1.378400000E-02   9.967347139E+01  -2.749403270E+01  -9.800160113E+01   9.967297061E-05
   1.378500000E-02   9.965709555E+01  -2.988819302E+01  -9.801463453E+01   9.965659829E-05
   1.378600000E-02   9.965617669E+01  -2.988791667E+01  -9.802717234E+01   9.965567513E-05
   1.378700000E-02   9.965524881E+01  -2.988763857E+01  -9.803863899E+01   9.965474523E-05
   1.378800000E-02   9.965431825E+01  -2.988735862E+01  -9.804910323E+01   9.965381413E-05
   1.378900000E-02   9.965338149E+01  -2.988707675E+01  -9.805866579E+01   9.965287711E-05
   1.379000000E-02   9.974979345E+01  -1.491325074E+01  -9.806365649E+01   9.974928893E-05
   1.379100000E-02   9.984848806E+01  -9.981521447E-03  -9.803523373E+01   9.984798561E-05
   1.379200000E-02   9.982328937E+01  -4.191011486E+00  -9.801175566E+01   9.982279192E-05
   1.379300000E-02   9.975507830E+01  -1.489263630E+01  -9.799948517E+01   9.975457823E-05
   1.379400000E-02   9.967351556E+01  -2.748729803E+01  -9.800159561E+01   9.967301478E-05
   1.379500000E-02   9.965709518E+01  -2.988819292E+01  -9.801463969E+01   9.965659794E-05
   1.379600000E-02   9.965617703E+01  -2.988791677E+01  -9.802716779E+01   9.965567547E-05
   1.379700000E-02   9.965524932E+01  -2.988763872E+01  -9.803863289E+01   9.965474573E-05
   1.379800000E-02   9.965431805E+01  -2.988735856E+01  -9.804910545E+01   9.965381393E-05
   1.379900000E-02   9.965338112E+01  -2.988707664E+01  -9.805866945E+01   9.965287675E-05
   1.380000000E-02   9.974926835E+01  -1.499409331E+01  -9.806367257E+01   9.974876384E-05
   1.380100000E-02   9.984848888E+01  -9.981521529E-03  -9.803522298E+01   9.984798642E-05
   1.380200000E-02   9.982329905E+01  -4.189467788E+00  -9.801175602E+01   9.982280160E-05
   1.380300000E-02   9.975512251E+01  -1.488577537E+01  -9.799948734E+01   9.975462245E-05
   1.380400000E-02   9.967348380E+01  -2.749219751E+01  -9.800159462E+01   9.967298303E-05
   1.380500000E-02   9.965710046E+01  -2.988819307E+01  -9.801463251E+01   9.965659843E-05
   1.380600000E-02   9.965617825E+01  -2.988791671E+01  -9.802717045E+01   9.965567527E-05
   1.380700000E-02   9.965524896E+01  -2.988763862E+01  -9.803863728E+01   9.965474537E-05
   1.380800000E-02   9.965431839E+01  -2.988735866E+01  -9.804910167E+01   9.965381427E-05
   1.380900000E-02   9.965338163E+01  -2.988707680E+01  -9.805866436E+01   9.965287726E-05
   1.381000000E-02   9.974964585E+01  -1.493597382E+01  -9.806366101E+01   9.974914134E-05
   1.381100000E-02   9.984848848E+01  -9.981521489E-03  -9.803522829E+01   9.984798602E-05
   1.381200000E-02   9.982329499E+01  -4.190148138E+00  -9.801175363E+01   9.982279754E-05
   1.381300000E-02   9.975509072E+01  -1.489076403E+01  -9.799948414E+01   9.975459066E-05
   1.381400000E-02   9.967352798E+01  -2.748546093E+01  -9.800158911E+01   9.967302720E-05
   1.381500000E-02   9.965710010E+01  -2.988819296E+01  -9.801463767E+01   9.965659807E-05
   1.381600000E-02   9.965617859E+01  -2.988791682E+01  -9.802716590E+01   9.965567561E-05
   1.381700000E-02   9.965524875E+01  -2.988763856E+01  -9.803863971E+01   9.965474517E-05
   1.381800000E-02   9.965431803E+01  -2.988735855E+01  -9.804910567E+01   9.965381391E-05
   1.381900000E-02   9.965338126E+01  -2.988707669E+01  -9.805866802E+01   9.965287689E-05
   1.382000000E-02   9.974957209E+01  -1.494733037E+01  -9.806366327E+01   9.974906757E-05
   1.382100000E-02   9.984848856E+01  -9.981521497E-03  -9.803522719E+01   9.984798610E-05
   1.382200000E-02   9.982330467E+01  -4.188603931E+00  -9.801175932E+01   9.982280722E-05
   1.382300000E-02   9.975508173E+01  -1.489219891E+01  -9.799948323E+01   9.975458166E-05
   1.382400000E-02   9.967349622E+01  -2.749035783E+01  -9.800159307E+01   9.967299544E-05
   1.382500000E-02   9.965709975E+01  -2.988819285E+01  -9.801464283E+01   9.965659772E-05
   1.382600000E-02   9.965617823E+01  -2.988791671E+01  -9.802717072E+01   9.965567525E-05
   1.382700000E-02   9.965524910E+01  -2.988763866E+01  -9.803863557E+01   9.965474551E-05
   1.382800000E-02   9.965431853E+01  -2.988735870E+01  -9.804910010E+01   9.965381441E-05
   1.382900000E-02   9.965338106E+01  -2.988707818E+01  -9.805867005E+01   9.965287669E-05
   1.383000000E-02   9.974949826E+01  -1.495869689E+01  -9.806366553E+01   9.974899375E-05
   1.383100000E-02   9.984848938E+01  -9.981521579E-03  -9.803521644E+01   9.984798692E-05
   1.383200000E-02   9.982329030E+01  -4.190950561E+00  -9.801175087E+01   9.982279286E-05
[...]
   2.478400000E-02   1.033085928E+02  -3.098331344E+01  -9.097056328E+01   1.956129870E+01
   2.478500000E-02   1.033127346E+02  -3.098455616E+01  -9.096169014E+01   1.956002603E+01
   2.478600000E-02   1.033168764E+02  -3.098579812E+01  -9.095281395E+01   1.955876862E+01
   2.478700000E-02   1.033210235E+02  -3.098704112E+01  -9.094392923E+01   1.955752618E+01
   2.478800000E-02   1.033251623E+02  -3.098828320E+01  -9.093504808E+01   1.955629917E+01
   2.478900000E-02   1.033292964E+02  -3.098952325E+01  -9.092617494E+01   1.955508754E+01
   2.479000000E-02   1.033334344E+02  -3.099076441E+01  -9.091731031E+01   1.955389234E+01
   2.479100000E-02   1.033375723E+02  -3.099200446E+01  -9.090843247E+01   1.955271238E+01
   2.479200000E-02   1.033417065E+02  -3.099324359E+01  -9.089956238E+01   1.955154797E+01
   2.479300000E-02   1.033458353E+02  -3.099448307E+01  -9.089069687E+01   1.955039868E+01
   2.479400000E-02   1.033499671E+02  -3.099572255E+01  -9.088182831E+01   1.954926521E+01
   2.479500000E-02   1.033541013E+02  -3.099696365E+01  -9.087294589E+01   1.954814421E+01
   2.479600000E-02   1.033582354E+02  -3.099820248E+01  -9.086407542E+01   1.954704008E+01
   2.479700000E-02   1.033623642E+02  -3.099944005E+01  -9.085520685E+01   1.954595239E+01
   2.479800000E-02   1.033664908E+02  -3.100067763E+01  -9.084634134E+01   1.954487863E+01
   2.479900000E-02   1.033706173E+02  -3.100191520E+01  -9.083747812E+01   1.954382087E+01
   2.480000000E-02   1.033747453E+02  -3.100315312E+01  -9.082861134E+01   1.954277588E+01
   2.480100000E-02   1.033788661E+02  -3.100438964E+01  -9.081975033E+01   1.954175021E+01
   2.480200000E-02   1.033829945E+02  -3.100562762E+01  -9.081087688E+01   1.954073628E+01
   2.480300000E-02   1.033871180E+02  -3.100686455E+01  -9.080200871E+01   1.953973900E+01
   2.480400000E-02   1.033912369E+02  -3.100810021E+01  -9.079315082E+01   1.953875677E+01
   2.480500000E-02   1.033953558E+02  -3.100933587E+01  -9.078428989E+01   1.953778922E+01
   2.480600000E-02   1.033994747E+02  -3.101057154E+01  -9.077543200E+01   1.953683558E+01
   2.480700000E-02   1.034035935E+02  -3.101180587E+01  -9.076657106E+01   1.953589796E+01
   2.480800000E-02   1.034077124E+02  -3.101303963E+01  -9.075771317E+01   1.953497483E+01
   2.480900000E-02   1.034118260E+02  -3.101427472E+01  -9.074885758E+01   1.953406638E+01
   2.481000000E-02   1.034159418E+02  -3.101550921E+01  -9.074000073E+01   1.953317098E+01
   2.481100000E-02   1.034200598E+02  -3.101674311E+01  -9.073113894E+01   1.953229177E+01
   2.481200000E-02   1.034241750E+02  -3.101797696E+01  -9.072228192E+01   1.953142769E+01
   2.481300000E-02   1.034282809E+02  -3.101920938E+01  -9.071342632E+01   1.953057703E+01
   2.481400000E-02   1.034323899E+02  -3.102044257E+01  -9.070457606E+01   1.952974104E+01
   2.481500000E-02   1.034365012E+02  -3.102167499E+01  -9.069572275E+01   1.952892032E+01
   2.481600000E-02   1.034406071E+02  -3.102290684E+01  -9.068687249E+01   1.952811350E+01
   2.481700000E-02   1.034447107E+02  -3.102413736E+01  -9.067802452E+01   1.952732004E+01
   2.481800000E-02   1.034488250E+02  -3.102537024E+01  -9.066915967E+01   1.952654024E+01
   2.481900000E-02   1.034529332E+02  -3.102660144E+01  -9.066030447E+01   1.952577496E+01
   2.482000000E-02   1.034570315E+02  -3.102783116E+01  -9.065146578E+01   1.952502246E+01
   2.482100000E-02   1.034611352E+02  -3.102906358E+01  -9.064261369E+01   1.952428630E+01
   2.482200000E-02   1.034652365E+02  -3.103029185E+01  -9.063376819E+01   1.952356240E+01
   2.482300000E-02   1.034693348E+02  -3.103152122E+01  -9.062492556E+01   1.952285227E+01
   2.482400000E-02   1.034734308E+02  -3.103275117E+01  -9.061608521E+01   1.952215606E+01
   2.482500000E-02   1.034775268E+02  -3.103397978E+01  -9.060723954E+01   1.952147319E+01
   2.482600000E-02   1.034816281E+02  -3.103520941E+01  -9.059838537E+01   1.952080280E+01
   2.482700000E-02   1.034857264E+02  -3.103643814E+01  -9.058954009E+01   1.952014628E+01
   2.482800000E-02   1.034898224E+02  -3.103766618E+01  -9.058069975E+01   1.951950347E+01
   2.482900000E-02   1.034939131E+02  -3.103889288E+01  -9.057185941E+01   1.951887267E+01
   2.483000000E-02   1.034980068E+02  -3.104012069E+01  -9.056301858E+01   1.951825305E+01
   2.483100000E-02   1.035020980E+02  -3.104134696E+01  -9.055418331E+01   1.951765099E+01
   2.483200000E-02   1.035061858E+02  -3.104257318E+01  -9.054535134E+01   1.951705921E+01
   2.483300000E-02   1.035102795E+02  -3.104380091E+01  -9.053650711E+01   1.951647990E+01
   2.483400000E-02   1.035143648E+02  -3.104502772E+01  -9.052766411E+01   1.951591228E+01
   2.483500000E-02   1.035184509E+02  -3.104625251E+01  -9.051882911E+01   1.951535853E+01
   2.483600000E-02   1.035225340E+02  -3.104747807E+01  -9.050999640E+01   1.951481602E+01
   2.483700000E-02   1.035266200E+02  -3.104870287E+01  -9.050116368E+01   1.951428572E+01
   2.483800000E-02   1.035307031E+02  -3.104992709E+01  -9.049233631E+01   1.951376876E+01
   2.483900000E-02   1.035347838E+02  -3.105115132E+01  -9.048350588E+01   1.951326247E+01
   2.484000000E-02   1.035388676E+02  -3.105237473E+01  -9.047467117E+01   1.951276688E+01
   2.484100000E-02   1.035429464E+02  -3.105359934E+01  -9.046583896E+01   1.951228577E+01
   2.484200000E-02   1.035470260E+02  -3.105482302E+01  -9.045700655E+01   1.951181481E+01
   2.484300000E-02   1.035511014E+02  -3.105604534E+01  -9.044817917E+01   1.951135564E+01
   2.484400000E-02   1.035551799E+02  -3.105726766E+01  -9.043935409E+01   1.951090790E+01
   2.484500000E-02   1.035592553E+02  -3.105848997E+01  -9.043052900E+01   1.951047027E+01
   2.484600000E-02   1.035633284E+02  -3.105971096E+01  -9.042170925E+01   1.951004484E+01
   2.484700000E-02   1.035673962E+02  -3.106093270E+01  -9.041288645E+01   1.950963009E+01
   2.484800000E-02   1.035714670E+02  -3.106215368E+01  -9.040406136E+01   1.950922487E+01
   2.484900000E-02   1.035755454E+02  -3.106337568E+01  -9.039523011E+01   1.950883134E+01
   2.485000000E-02   1.035796140E+02  -3.106459559E+01  -9.038641090E+01   1.950844658E+01
   2.485100000E-02   1.035836804E+02  -3.106581477E+01  -9.037759454E+01   1.950807530E+01
   2.485200000E-02   1.035877465E+02  -3.106703569E+01  -9.036877281E+01   1.950771274E+01
   2.485300000E-02   1.035918120E+02  -3.106825476E+01  -9.035995535E+01   1.950736035E+01
   2.485400000E-02   1.035958774E+02  -3.106947326E+01  -9.035113789E+01   1.950701806E+01
   2.485500000E-02   1.035999376E+02  -3.107069177E+01  -9.034232576E+01   1.950668530E+01
   2.485600000E-02   1.036040008E+02  -3.107191027E+01  -9.033351060E+01   1.950636341E+01
   2.485700000E-02   1.036080662E+02  -3.107312903E+01  -9.032468698E+01   1.950604988E+01
   2.485800000E-02   1.036121264E+02  -3.107434764E+01  -9.031587222E+01   1.950574557E+01
   2.485900000E-02   1.036161842E+02  -3.107556481E+01  -9.030706239E+01   1.950545096E+01
   2.486000000E-02   1.036202421E+02  -3.107678099E+01  -9.029825419E+01   1.950516612E+01
   2.486100000E-02   1.036243000E+02  -3.107799791E+01  -9.028944027E+01   1.950488997E+01
   2.486200000E-02   1.036283525E+02  -3.107921326E+01  -9.028063290E+01   1.950462298E+01
   2.486300000E-02   1.036324081E+02  -3.108042928E+01  -9.027182840E+01   1.950436459E+01
   2.486400000E-02   1.036364659E+02  -3.108164613E+01  -9.026300937E+01   1.950411408E+01
   2.486500000E-02   1.036405184E+02  -3.108286150E+01  -9.025419996E+01   1.950387273E+01
   2.486600000E-02   1.036445686E+02  -3.108407618E+01  -9.024539776E+01   1.950363971E+01
   2.486700000E-02   1.036486188E+02  -3.108529087E+01  -9.023659555E+01   1.950341565E+01
   2.486800000E-02   1.036526691E+02  -3.108650556E+01  -9.022779335E+01   1.950319846E+01
   2.486900000E-02   1.036567140E+02  -3.108771892E+01  -9.021899114E+01   1.950298965E+01
   2.487000000E-02   1.036607596E+02  -3.108893318E+01  -9.021018466E+01   1.950278756E+01
   2.487100000E-02   1.036648051E+02  -3.109014468E+01  -9.020139133E+01   1.950259410E+01
   2.487200000E-02   1.036688547E+02  -3.109135885E+01  -9.019258602E+01   1.950240856E+01
   2.487300000E-02   1.036728996E+02  -3.109257230E+01  -9.018378119E+01   1.950222940E+01
   2.487400000E-02   1.036769368E+02  -3.109378375E+01  -9.017498433E+01   1.950205740E+01
   2.487500000E-02   1.036809771E+02  -3.109499596E+01  -9.016618975E+01   1.950189303E+01
   2.487600000E-02   1.036850144E+02  -3.109620741E+01  -9.015739517E+01   1.950173629E+01
   2.487700000E-02   1.036890547E+02  -3.109741828E+01  -9.014860059E+01   1.950158583E+01
   2.487800000E-02   1.036930920E+02  -3.109862916E+01  -9.013981135E+01   1.950144110E+01
   2.487900000E-02   1.036971270E+02  -3.109983870E+01  -9.013101907E+01   1.950130341E+01
   2.488000000E-02   1.037011627E+02  -3.110104990E+01  -9.012222634E+01   1.950117116E+01
   2.488100000E-02   1.037051957E+02  -3.110226043E+01  -9.011343133E+01   1.950104617E+01
   2.488200000E-02   1.037092318E+02  -3.110346977E+01  -9.010463956E+01   1.950092752E+01
   2.488300000E-02   1.037132614E+02  -3.110467873E+01  -9.009585261E+01   1.950081387E+01
   2.488400000E-02   1.037172941E+02  -3.110588770E+01  -9.008706566E+01   1.950070670E+01
   2.488500000E-02   1.037213238E+02  -3.110709534E+01  -9.007827871E+01   1.950060449E+01
   2.488600000E-02   1.037253511E+02  -3.110830373E+01  -9.006949176E+01   1.950050742E+01
   2.488700000E-02   1.037293785E+02  -3.110951137E+01  -9.006071014E+01   1.950041741E+01
   2.488800000E-02   1.037334057E+02  -3.111072000E+01  -9.005191937E+01   1.950033092E+01
   2.488900000E-02   1.037374331E+02  -3.111192774E+01  -9.004312980E+01   1.950025040E+01
   2.489000000E-02   1.037414551E+02  -3.111313343E+01  -9.003435517E+01   1.950017452E+01
   2.489100000E-02   1.037454748E+02  -3.111434058E+01  -9.002557176E+01   1.950010274E+01
   2.489200000E-02   1.037494945E+02  -3.111554568E+01  -9.001679718E+01   1.950003664E+01
   2.489300000E-02   1.037535142E+02  -3.111675083E+01  -9.000801786E+01   1.949997581E+01
   2.489400000E-02   1.037575340E+02  -3.111795599E+01  -8.999923853E+01   1.949991803E+01
   2.489500000E-02   1.037615537E+02  -3.111916114E+01  -8.999046454E+01   1.949986482E+01
   2.489600000E-02   1.037655733E+02  -3.112036653E+01  -8.998168141E+01   1.949981594E+01
   2.489700000E-02   1.037695876E+02  -3.112157179E+01  -8.997290482E+01   1.949977091E+01
   2.489800000E-02   1.037736051E+02  -3.112277561E+01  -8.996412778E+01   1.949972972E+01
   2.489900000E-02   1.037776195E+02  -3.112397886E+01  -8.995535914E+01   1.949969235E+01
   2.490000000E-02   1.037816292E+02  -3.112518262E+01  -8.994658318E+01   1.949965762E+01
   2.490100000E-02   1.037856394E+02  -3.112638555E+01  -8.993781558E+01   1.949962712E+01
   2.490200000E-02   1.037896481E+02  -3.112758727E+01  -8.992905168E+01   1.949959986E+01
   2.490300000E-02   1.037936601E+02  -3.112879017E+01  -8.992027084E+01   1.949957580E+01
   2.490400000E-02   1.037976722E+02  -3.112999352E+01  -8.991149959E+01   1.949955424E+01
   2.490500000E-02   1.038016789E+02  -3.113119543E+01  -8.990273552E+01   1.949953594E+01
   2.490600000E-02   1.038056834E+02  -3.113239544E+01  -8.989397146E+01   1.949952011E+01
   2.490700000E-02   1.038096879E+02  -3.113359621E+01  -8.988520739E+01   1.949950752E+01
   2.490800000E-02   1.038136870E+02  -3.113479755E+01  -8.987644332E+01   1.949949742E+01
   2.490900000E-02   1.038176892E+02  -3.113599756E+01  -8.986768459E+01   1.949948922E+01
   2.491000000E-02   1.038216890E+02  -3.113719731E+01  -8.985891858E+01   1.949948406E+01
   2.491100000E-02   1.038256915E+02  -3.113839830E+01  -8.985015315E+01   1.949948001E+01
   2.491200000E-02   1.038296948E+02  -3.113959676E+01  -8.984139133E+01   1.949947929E+01
   2.491300000E-02   1.038336886E+02  -3.114079562E+01  -8.983263489E+01   1.949947929E+01
   2.491400000E-02   1.038376831E+02  -3.114199372E+01  -8.982387845E+01   1.949948196E+01
   2.491500000E-02   1.038416800E+02  -3.114319258E+01  -8.981512201E+01   1.949948578E+01
   2.491600000E-02   1.038456768E+02  -3.114439068E+01  -8.980636557E+01   1.949949093E+01
   2.491700000E-02   1.038496683E+02  -3.114558821E+01  -8.979761447E+01   1.949949798E+01
   2.491800000E-02   1.038536575E+02  -3.114678440E+01  -8.978886032E+01   1.949950561E+01
   2.491900000E-02   1.038576519E+02  -3.114798291E+01  -8.978009781E+01   1.949951458E+01
   2.492000000E-02   1.038616419E+02  -3.114917974E+01  -8.977134881E+01   1.949952507E+01
   2.492100000E-02   1.038656321E+02  -3.115037461E+01  -8.976260011E+01   1.949953675E+01
   2.492200000E-02   1.038696218E+02  -3.115157101E+01  -8.975384649E+01   1.949954834E+01
   2.492300000E-02   1.038736057E+02  -3.115276663E+01  -8.974509767E+01   1.949956112E+01
   2.492400000E-02   1.038775873E+02  -3.115396225E+01  -8.973635420E+01   1.949957446E+01
   2.492500000E-02   1.038815742E+02  -3.115515654E+01  -8.972760768E+01   1.949958915E+01
   2.492600000E-02   1.038855581E+02  -3.115635025E+01  -8.971886420E+01   1.949960307E+01
   2.492700000E-02   1.038895449E+02  -3.115754686E+01  -8.971011162E+01   1.949961777E+01
   2.492800000E-02   1.038935233E+02  -3.115874181E+01  -8.970136555E+01   1.949963170E+01
   2.492900000E-02   1.038975026E+02  -3.115993419E+01  -8.969262436E+01   1.949964638E+01
   2.493000000E-02   1.039014804E+02  -3.116112768E+01  -8.968388250E+01   1.949966144E+01
   2.493100000E-02   1.039054610E+02  -3.116232004E+01  -8.967514013E+01   1.949967527E+01
   2.493200000E-02   1.039094344E+02  -3.116351152E+01  -8.966640615E+01   1.949969024E+01
   2.493300000E-02   1.039134084E+02  -3.116470466E+01  -8.965766726E+01   1.949970416E+01
   2.493400000E-02   1.039173875E+02  -3.116589725E+01  -8.964892001E+01   1.949971752E+01
   2.493500000E-02   1.039213637E+02  -3.116708915E+01  -8.964017624E+01   1.949973088E+01
   2.493600000E-02   1.039253323E+02  -3.116828096E+01  -8.963144039E+01   1.949974289E+01
   2.493700000E-02   1.039293040E+02  -3.116947143E+01  -8.962270684E+01   1.949975433E+01
   2.493800000E-02   1.039332726E+02  -3.117066133E+01  -8.961397862E+01   1.949976444E+01
   2.493900000E-02   1.039372389E+02  -3.117185123E+01  -8.960524735E+01   1.949977398E+01
   2.494000000E-02   1.039412082E+02  -3.117304240E+01  -8.959650729E+01   1.949978352E+01
   2.494100000E-02   1.039451727E+02  -3.117423151E+01  -8.958778542E+01   1.949978995E+01
   2.494200000E-02   1.039491431E+02  -3.117542115E+01  -8.957904826E+01   1.949979611E+01
   2.494300000E-02   1.039531116E+02  -3.117661114E+01  -8.957031212E+01   1.949980183E+01
   2.494400000E-02   1.039570726E+02  -3.117779970E+01  -8.956158390E+01   1.949980621E+01
   2.494500000E-02   1.039610313E+02  -3.117898769E+01  -8.955285797E+01   1.949980736E+01
   2.494600000E-02   1.039649900E+02  -3.118017569E+01  -8.954413738E+01   1.949980736E+01
   2.494700000E-02   1.039689541E+02  -3.118136234E+01  -8.953541374E+01   1.949980602E+01
   2.494800000E-02   1.039729097E+02  -3.118254976E+01  -8.952668782E+01   1.949980412E+01
   2.494900000E-02   1.039768662E+02  -3.118373642E+01  -8.951796722E+01   1.949979954E+01
   2.495000000E-02   1.039808255E+02  -3.118492358E+01  -8.950924319E+01   1.949979306E+01
   2.495100000E-02   1.039847822E+02  -3.118611074E+01  -8.950051689E+01   1.949978352E+01
   2.495200000E-02   1.039887367E+02  -3.118729689E+01  -8.949179608E+01   1.949977264E+01
   2.495300000E-02   1.039926931E+02  -3.118848297E+01  -8.948307777E+01   1.949975987E+01
   2.495400000E-02   1.039966465E+02  -3.118966773E+01  -8.947435947E+01   1.949974518E+01
   2.495500000E-02   1.040005975E+02  -3.119085190E+01  -8.946564117E+01   1.949972859E+01
   2.495600000E-02   1.040045433E+02  -3.119203608E+01  -8.945692820E+01   1.949970876E+01
   2.495700000E-02   1.040084921E+02  -3.119322026E+01  -8.944821220E+01   1.949968646E+01
   2.495800000E-02   1.040124429E+02  -3.119440599E+01  -8.943948787E+01   1.949966221E+01
   2.495900000E-02   1.040163939E+02  -3.119559083E+01  -8.943077233E+01   1.949963473E+01
   2.496000000E-02   1.040203359E+02  -3.119677345E+01  -8.942206251E+01   1.949960423E+01
   2.496100000E-02   1.040242831E+02  -3.119795627E+01  -8.941334969E+01   1.949957132E+01
   2.496200000E-02   1.040282266E+02  -3.119913821E+01  -8.940464030E+01   1.949953596E+01
   2.496300000E-02   1.040321700E+02  -3.120032048E+01  -8.939593497E+01   1.949949839E+01
   2.496400000E-02   1.040361081E+02  -3.120150276E+01  -8.938722659E+01   1.949945759E+01
   2.496500000E-02   1.040400544E+02  -3.120268657E+01  -8.937850989E+01   1.949941291E+01
   2.496600000E-02   1.040439947E+02  -3.120386817E+01  -8.936979664E+01   1.949936578E+01
   2.496700000E-02   1.040479306E+02  -3.120504853E+01  -8.936109131E+01   1.949931677E+01
   2.496800000E-02   1.040518664E+02  -3.120622890E+01  -8.935238826E+01   1.949926319E+01
   2.496900000E-02   1.040558022E+02  -3.120740926E+01  -8.934368522E+01   1.949920655E+01
   2.497000000E-02   1.040597432E+02  -3.120859089E+01  -8.933498102E+01   1.949914740E+01
   2.497100000E-02   1.040636696E+02  -3.120977046E+01  -8.932628203E+01   1.949908474E+01
   2.497200000E-02   1.040676020E+02  -3.121094902E+01  -8.931758371E+01   1.949901740E+01
   2.497300000E-02   1.040715376E+02  -3.121212902E+01  -8.930887465E+01   1.949894732E+01
   2.497400000E-02   1.040754734E+02  -3.121330813E+01  -8.930017438E+01   1.949887406E+01
   2.497500000E-02   1.040794039E+02  -3.121448659E+01  -8.929147362E+01   1.949879835E+01
   2.497600000E-02   1.040833320E+02  -3.121566505E+01  -8.928277591E+01   1.949871807E+01
   2.497700000E-02   1.040872549E+02  -3.121684351E+01  -8.927408049E+01   1.949863341E+01
   2.497800000E-02   1.040911808E+02  -3.121802063E+01  -8.926539041E+01   1.949854626E+01
   2.497900000E-02   1.040951090E+02  -3.121919718E+01  -8.925669728E+01   1.949845588E+01
   2.498000000E-02   1.040990325E+02  -3.122037480E+01  -8.924800302E+01   1.949836161E+01
   2.498100000E-02   1.041029587E+02  -3.122155170E+01  -8.923930152E+01   1.949826190E+01
   2.498200000E-02   1.041068803E+02  -3.122272903E+01  -8.923060780E+01   1.949815975E+01
   2.498300000E-02   1.041108009E+02  -3.122390424E+01  -8.922192001E+01   1.949805410E+01
   2.498400000E-02   1.041147214E+02  -3.122508022E+01  -8.921323222E+01   1.949794331E+01
   2.498500000E-02   1.041186420E+02  -3.122625544E+01  -8.920454443E+01   1.949782947E+01
   2.498600000E-02   1.041225572E+02  -3.122743008E+01  -8.919585664E+01   1.949771106E+01
   2.498700000E-02   1.041264755E+02  -3.122860473E+01  -8.918716884E+01   1.949758959E+01
   2.498800000E-02   1.041303907E+02  -3.122977937E+01  -8.917848639E+01   1.949746355E+01
   2.498900000E-02   1.041343088E+02  -3.123095421E+01  -8.916978956E+01   1.949733295E+01
   2.499000000E-02   1.041382224E+02  -3.123212739E+01  -8.916110465E+01   1.949719999E+01
   2.499100000E-02   1.041421335E+02  -3.123330104E+01  -8.915242459E+01   1.949706106E+01
   2.499200000E-02   1.041460444E+02  -3.123447499E+01  -8.914374193E+01   1.949691870E+01
   2.499300000E-02   1.041499551E+02  -3.123564773E+01  -8.913506177E+01   1.949677301E+01
   2.499400000E-02   1.041538627E+02  -3.123681913E+01  -8.912638161E+01   1.949662218E+01
   2.499500000E-02   1.041577733E+02  -3.123799129E+01  -8.911770144E+01   1.949646829E+01
   2.499600000E-02   1.041616860E+02  -3.123916423E+01  -8.910901530E+01   1.949630963E+01
   2.499700000E-02   1.041655935E+02  -3.124033705E+01  -8.910033257E+01   1.949614535E+01
   2.499800000E-02   1.041694988E+02  -3.124150845E+01  -8.909165775E+01   1.949597812E+01
   2.499900000E-02   1.041733988E+02  -3.124267928E+01  -8.908298522E+01   1.949580630E+01
   2.500000000E-02   1.041772981E+02  -3.124384836E+01  -8.907431355E+01   1.949563034E+01
   2.500000037E-02   1.041772995E+02  -3.124384880E+01  -8.907431030E+01   1.949563026E+01




          JOB CONCLUDED

          TOTAL JOB TIME            5.20
