
**** 05/31/13 10:46:30 ********* PSpice 9.2 (Mar 2000) ******** ID# 1 ********

 ** Profile: "SCHEMATIC1-2"  [ G:\44FZ\paralel-schematic1-2.sim ] 


 ****     CIRCUIT DESCRIPTION


******************************************************************************




** Creating circuit file "paralel-schematic1-2.sim.cir" 
** WARNING: THIS AUTOMATICALLY GENERATED FILE MAY BE OVERWRITTEN BY SUBSEQUENT SIMULATIONS

*Libraries: 
* Local Libraries :
* From [PSPICE NETLIST] section of g:\program files\Orcad\PSpice\PSpice.ini file:
.lib "nom.lib" 

*Analysis directives: 
.TRAN 1u 25ms 13ms 1u 
.OPTIONS NOBIAS
.OPTIONS NOMOD
.OPTIONS NOOUTMSG
.OPTIONS ITL4= 100
.OPTIONS NUMDGT= 10
.OPTIONS WIDTH= 132
.PROBE V(*) I(*) W(*) D(*) NOISE(*) 
.INC ".\paralel-SCHEMATIC1.net" 



**** INCLUDING paralel-SCHEMATIC1.net ****
* source PARALEL
R_R2         0 N50597  1MEG  
X_S4    N241303 0 N27236 N241265 SCHEMATIC1_S4 
X_S2    N236610 0 N27236 N235437 SCHEMATIC1_S2 
R_RB1         0 SHIM  3.33333  
R_R6         0 N260882  1MEG  
E_DIFF3         N241303 0 VALUE {V(N257386,N254383)}
R_RB2         0 N235437  4  
R_R8         0 N260240  1MEG  
X_U2         N260882 N254383 Sw_tClose PARAMS: tClose=24.5m ttran=1u
+  Rclosed=0.01 Ropen=1Meg
E_E1         N62053 0 VALUE {
+  if(I(V_V1)<138.9473,(-25.641*log((139.2857-I(V_V1))/139.2857))/-1.204+128.2051,0)
+  }
R_RB3         0 N239113  4  
C_CN         N40356 RN1  0.001  
L_L2         N64666 RN1  5uH  
C_CF         N00729 N27236  0.009  
V_V4         N259871 0   0.7
R_R4         0 N254383  1MEG  
R_RK2         N234987 N64666  0.02630  
R_RCN         0 N40356  0.02171  
V_V3         N50597 0 DC 0.01 AC 1
+PULSE 0 0.8 0 0.0098m 0.0001m 0.01m 0.01m
R_RCF         N00729 0  6.51419e-3  
X_S3    N239167 0 N27236 N239113 SCHEMATIC1_S3 
V_V5         N260240 0   0.7
X_U3         N260009 N260882 Sw_tClose PARAMS: tClose=24.5m ttran=1u
+  Rclosed=0.01 Ropen=1Meg
R_R7         0 N260009  1MEG  
L_L1         N134688 N27236  5uH  
V_V6         N257386 0   0.7
X_S1    N27337 0 N27236 SHIM SCHEMATIC1_S1 
R_RDN         0 N27236  40  
E_DIFF1         N50582 0 VALUE {V(N08877,N27236)}
E_DIFF4         N239167 0 VALUE {V(N260240,N260882)}
V_V2         N254251 0   1
V_V1         N62053 N134650 DC 0 AC 1 0
R_RB4         0 N241265  4  
V_Unom         N08877 0   100
R_R3         0 N254251  1MEG  
E_DIFF5         N236610 0 VALUE {V(N259871,N260009)}
R_RA         0 RN1  2.22222222  
R_RK1         N134688 N134650  0.02630  
E_DIFF2         N27337 0 VALUE {V(N50597,N50582)}
R_R5         0 N257386  1MEG  
X_SwStart         N27236 N234987 Sw_tClose PARAMS: tClose=14m ttran=1u
+  Rclosed=1u Ropen=1MEG
X_U1         N254383 N254251 Sw_tClose PARAMS: tClose=14.04m ttran=1u
+  Rclosed=0.01 Ropen=1Meg
R_R1         0 N08877  1MEG  
R_R9         0 N259871  1MEG  
.IC         V(N134650 )=5
.PRINT         TRAN V([N27236]) I(R_RB1) I(R_RK1) I(R_RK2)
.subckt SCHEMATIC1_S4 1 2 3 4  
S_S4         3 4 1 2 _S4
RS_S4         1 2 1G
.MODEL         _S4 VSWITCH Roff=1e4 Ron=1m Voff=-1e-4 Von=1e-4
.ends SCHEMATIC1_S4

.subckt SCHEMATIC1_S2 1 2 3 4  
S_S2         3 4 1 2 _S2
RS_S2         1 2 1G
.MODEL         _S2 VSWITCH Roff=1e4 Ron=0.1m Voff=-1e-4 Von=1e-4
.ends SCHEMATIC1_S2

.subckt SCHEMATIC1_S3 1 2 3 4  
S_S3         3 4 1 2 _S3
RS_S3         1 2 1G
.MODEL         _S3 VSWITCH Roff=1e4 Ron=1m Voff=-1e-4 Von=1e-4
.ends SCHEMATIC1_S3

.subckt SCHEMATIC1_S1 1 2 3 4  
S_S1         3 4 1 2 _S1
RS_S1         1 2 1G
.MODEL         _S1 VSWITCH Roff=1e4 Ron=1m Voff=-1e-4 Von=1e-4
.ends SCHEMATIC1_S1

**** RESUMING paralel-schematic1-2.sim.cir ****
.END

WARNING -- Pulse Period < (Rise Time + Fall Time + Pulse Width) for V_V3
WARNING -- Pulse Period < (Rise Time + Fall Time + Pulse Width) for V_V3
**** 05/31/13 10:46:30 ********* PSpice 9.2 (Mar 2000) ******** ID# 1 ********

 ** Profile: "SCHEMATIC1-2"  [ G:\44FZ\paralel-schematic1-2.sim ] 


 ****     TRANSIENT ANALYSIS               TEMPERATURE =   27.000 DEG C


******************************************************************************



  TIME              V(N27236)         I(R_RB1)          I(R_RK1)          I(R_RK2)          

   1.300000000E-02   9.984606869E+01  -9.981280130E-03  -9.806647543E+01   9.984582610E-05
   1.300100000E-02   9.984817359E+01  -9.981489939E-03  -9.803760821E+01   9.984795688E-05
   1.300200000E-02   9.983615145E+01  -2.173023181E+00  -9.801264043E+01   9.983593681E-05
   1.300300000E-02   9.975512896E+01  -1.486759675E+01  -9.799906096E+01   9.975491879E-05
   1.300400000E-02   9.967346154E+01  -2.746403132E+01  -9.800230833E+01   9.967324865E-05
   1.300500000E-02   9.965686699E+01  -2.988812291E+01  -9.801553996E+01   9.965665354E-05
   1.300600000E-02   9.965594395E+01  -2.988784784E+01  -9.802807138E+01   9.965572961E-05
   1.300700000E-02   9.965501936E+01  -2.988756898E+01  -9.803949567E+01   9.965480418E-05
   1.300800000E-02   9.965408791E+01  -2.988728867E+01  -9.804991549E+01   9.965387223E-05
   1.300900000E-02   9.965314942E+01  -2.988700828E+01  -9.805944311E+01   9.965293403E-05
   1.301000000E-02   9.974900249E+01  -1.499975064E+01  -9.806438707E+01   9.974878508E-05
   1.301100000E-02   9.984825992E+01  -9.981498587E-03  -9.803591164E+01   9.984804455E-05
   1.301200000E-02   9.982323176E+01  -4.164523957E+00  -9.801240382E+01   9.982301907E-05
   1.301300000E-02   9.975512562E+01  -1.485035088E+01  -9.800007820E+01   9.975490932E-05
   1.301400000E-02   9.967348691E+01  -2.745746328E+01  -9.800212104E+01   9.967327244E-05
   1.301500000E-02   9.965716010E+01  -2.984530978E+01  -9.801497253E+01   9.965694402E-05
   1.301600000E-02   9.965596811E+01  -2.988785255E+01  -9.802753652E+01   9.965575685E-05
   1.301700000E-02   9.965503951E+01  -2.988757427E+01  -9.803901279E+01   9.965482287E-05
   1.301800000E-02   9.965410880E+01  -2.988729581E+01  -9.804947619E+01   9.965389635E-05
   1.301900000E-02   9.965317194E+01  -2.988701426E+01  -9.805904213E+01   9.965295452E-05
   1.302000000E-02   9.974939908E+01  -1.494163415E+01  -9.806403598E+01   9.974918440E-05
   1.302100000E-02   9.984827886E+01  -9.981501114E-03  -9.803558713E+01   9.984806719E-05
   1.302200000E-02   9.982322205E+01  -4.169133268E+00  -9.801211155E+01   9.982301134E-05
   1.302300000E-02   9.975509384E+01  -1.485856660E+01  -9.799981633E+01   9.975487753E-05
   1.302400000E-02   9.967353109E+01  -2.745390824E+01  -9.800188895E+01   9.967331663E-05
   1.302500000E-02   9.965717842E+01  -2.984593170E+01  -9.801477321E+01   9.965696146E-05
   1.302600000E-02   9.965598435E+01  -2.988786007E+01  -9.802734927E+01   9.965577833E-05
   1.302700000E-02   9.965506142E+01  -2.988758200E+01  -9.803883666E+01   9.965484505E-05
   1.302800000E-02   9.965412590E+01  -2.988730202E+01  -9.804931535E+01   9.965391867E-05
   1.302900000E-02   9.965318699E+01  -2.988702149E+01  -9.805889797E+01   9.965297613E-05
   1.303000000E-02   9.974934421E+01  -1.495302014E+01  -9.806390092E+01   9.974913229E-05
   1.303100000E-02   9.984829775E+01  -9.981502863E-03  -9.803547715E+01   9.984808789E-05
   1.303200000E-02   9.982324880E+01  -4.168190844E+00  -9.801200658E+01   9.982303776E-05
   1.303300000E-02   9.975508485E+01  -1.486318864E+01  -9.799971166E+01   9.975486854E-05
   1.303400000E-02   9.967349933E+01  -2.746193679E+01  -9.800179868E+01   9.967328959E-05
   1.303500000E-02   9.965719823E+01  -2.984639700E+01  -9.801467656E+01   9.965698168E-05
   1.303600000E-02   9.965600774E+01  -2.988786594E+01  -9.802726359E+01   9.965579465E-05
   1.303700000E-02   9.965507780E+01  -2.988758766E+01  -9.803876293E+01   9.965485939E-05
   1.303800000E-02   9.965414709E+01  -2.988730764E+01  -9.804924307E+01   9.965393887E-05
   1.303900000E-02   9.965321023E+01  -2.988702732E+01  -9.805882440E+01   9.965299232E-05
   1.304000000E-02   9.974929344E+01  -1.496436386E+01  -9.806383832E+01   9.974907682E-05
   1.304100000E-02   9.984832146E+01  -9.981504807E-03  -9.803540060E+01   9.984810325E-05
   1.304200000E-02   9.982324137E+01  -4.172700051E+00  -9.801194014E+01   9.982302783E-05
   1.304300000E-02   9.975510626E+01  -1.486294951E+01  -9.799966042E+01   9.975488996E-05
   1.304400000E-02   9.967349416E+01  -2.746577213E+01  -9.800174859E+01   9.967328442E-05
   1.304500000E-02   9.965720987E+01  -2.984702392E+01  -9.801464098E+01   9.965699272E-05
   1.304600000E-02   9.965602893E+01  -2.988787156E+01  -9.802722398E+01   9.965581485E-05
   1.304700000E-02   9.965510104E+01  -2.988759349E+01  -9.803871287E+01   9.965488157E-05
   1.304800000E-02   9.965416976E+01  -2.988731329E+01  -9.804920593E+01   9.965395449E-05
   1.304900000E-02   9.965323276E+01  -2.988703294E+01  -9.805878993E+01   9.965301250E-05
   1.305000000E-02   9.974969003E+01  -1.490624732E+01  -9.806378480E+01   9.974947252E-05
   1.305100000E-02   9.984833844E+01  -9.981506556E-03  -9.803537453E+01   9.984812395E-05
   1.305200000E-02   9.982326585E+01  -4.171573885E+00  -9.801191375E+01   9.982305428E-05
   1.305300000E-02   9.975509728E+01  -1.486731240E+01  -9.799962671E+01   9.975488098E-05
   1.305400000E-02   9.967351175E+01  -2.746597940E+01  -9.800171588E+01   9.967330201E-05
   1.305500000E-02   9.965723006E+01  -2.984740860E+01  -9.801460316E+01   9.965701205E-05
   1.305600000E-02   9.965604532E+01  -2.988787722E+01  -9.802719627E+01   9.965583647E-05
   1.305700000E-02   9.965511594E+01  -2.988759910E+01  -9.803868676E+01   9.965490304E-05
   1.305800000E-02   9.965418538E+01  -2.988731912E+01  -9.804917150E+01   9.965397666E-05
   1.305900000E-02   9.965324852E+01  -2.988703881E+01  -9.805875430E+01   9.965303484E-05
   1.306000000E-02   9.974918399E+01  -1.498709264E+01  -9.806377037E+01   9.974896925E-05
   1.306100000E-02   9.984835928E+01  -9.981508501E-03  -9.803533327E+01   9.984814659E-05
   1.306200000E-02   9.982325841E+01  -4.175886424E+00  -9.801187478E+01   9.982304652E-05
   1.306300000E-02   9.975511869E+01  -1.486679373E+01  -9.799959835E+01   9.975490239E-05
   1.306400000E-02   9.967347999E+01  -2.747360920E+01  -9.800169428E+01   9.967327025E-05
   1.306500000E-02   9.965724171E+01  -2.984798491E+01  -9.801458552E+01   9.965702311E-05
   1.306600000E-02   9.965606092E+01  -2.988788305E+01  -9.802716868E+01   9.965585136E-05
   1.306700000E-02   9.965513799E+01  -2.988760497E+01  -9.803865775E+01   9.965491810E-05
   1.306800000E-02   9.965420176E+01  -2.988732478E+01  -9.804915095E+01   9.965399101E-05
   1.306900000E-02   9.965326342E+01  -2.988704442E+01  -9.805872879E+01   9.965304903E-05
   1.307000000E-02   9.974957676E+01  -1.492897513E+01  -9.806372829E+01   9.974936131E-05
   1.307100000E-02   9.984837340E+01  -9.981510249E-03  -9.803532056E+01   9.984816001E-05
   1.307200000E-02   9.982325894E+01  -4.178440124E+00  -9.801184187E+01   9.982304684E-05
   1.307300000E-02   9.975508691E+01  -1.487443134E+01  -9.799956997E+01   9.975487060E-05
   1.307400000E-02   9.967352417E+01  -2.746946758E+01  -9.800166588E+01   9.967331442E-05
   1.307500000E-02   9.965699142E+01  -2.988816073E+01  -9.801472157E+01   9.965677700E-05
   1.307600000E-02   9.965606898E+01  -2.988788432E+01  -9.802727514E+01   9.965585362E-05
   1.307700000E-02   9.965513949E+01  -2.988760618E+01  -9.803875586E+01   9.965492966E-05
   1.307800000E-02   9.965420893E+01  -2.988732617E+01  -9.804922639E+01   9.965399360E-05
   1.307900000E-02   9.965327196E+01  -2.988704586E+01  -9.805880173E+01   9.965305523E-05
   1.308000000E-02   9.974951084E+01  -1.494030000E+01  -9.806379157E+01   9.974929503E-05
   1.308100000E-02   9.984838185E+01  -9.981511262E-03  -9.803536322E+01   9.984816810E-05
   1.308200000E-02   9.982327088E+01  -4.177436695E+00  -9.801189563E+01   9.982305867E-05
   1.308300000E-02   9.975513112E+01  -1.486832444E+01  -9.799961486E+01   9.975491482E-05
   1.308400000E-02   9.967349241E+01  -2.747509986E+01  -9.800170799E+01   9.967328267E-05
   1.308500000E-02   9.965699349E+01  -2.988816253E+01  -9.801476246E+01   9.965678392E-05
   1.308600000E-02   9.965607575E+01  -2.988788634E+01  -9.802730200E+01   9.965586126E-05
   1.308700000E-02   9.965514763E+01  -2.988760824E+01  -9.803877384E+01   9.965493132E-05
   1.308800000E-02   9.965421634E+01  -2.988732801E+01  -9.804925177E+01   9.965399949E-05
   1.308900000E-02   9.965327922E+01  -2.988704605E+01  -9.805882188E+01   9.965306214E-05
   1.309000000E-02   9.974944061E+01  -1.495170009E+01  -9.806380910E+01   9.974922463E-05
   1.309100000E-02   9.984838553E+01  -9.981511344E-03  -9.803536774E+01   9.984816892E-05
   1.309200000E-02   9.982325655E+01  -4.180271398E+00  -9.801190244E+01   9.982304435E-05
   1.309300000E-02   9.975509933E+01  -1.487400618E+01  -9.799962691E+01   9.975488303E-05
   1.309400000E-02   9.967348722E+01  -2.747660646E+01  -9.800171893E+01   9.967327748E-05
   1.309500000E-02   9.965699680E+01  -2.988816349E+01  -9.801475951E+01   9.965678348E-05
   1.309600000E-02   9.965607462E+01  -2.988788715E+01  -9.802729716E+01   9.965586624E-05
   1.309700000E-02   9.965515152E+01  -2.988760906E+01  -9.803877256E+01   9.965493775E-05
   1.309800000E-02   9.965421624E+01  -2.988732911E+01  -9.804924176E+01   9.965400665E-05
   1.309900000E-02   9.965328422E+01  -2.988704879E+01  -9.805880750E+01   9.965306966E-05
   1.310000000E-02   9.974937018E+01  -1.496313115E+01  -9.806381137E+01   9.974915403E-05
   1.310100000E-02   9.984838916E+01  -9.981512162E-03  -9.803538268E+01   9.984817506E-05
   1.310200000E-02   9.982327877E+01  -4.177525401E+00  -9.801191420E+01   9.982306646E-05
   1.310300000E-02   9.975509035E+01  -1.487608753E+01  -9.799962601E+01   9.975487404E-05
   1.310400000E-02   9.967350482E+01  -2.747457209E+01  -9.800171407E+01   9.967329508E-05
   1.310500000E-02   9.965700066E+01  -2.988816427E+01  -9.801476828E+01   9.965678699E-05
   1.310600000E-02   9.965607915E+01  -2.988788813E+01  -9.802729912E+01   9.965587044E-05
   1.310700000E-02   9.965515622E+01  -2.988761008E+01  -9.803877028E+01   9.965494206E-05
   1.310800000E-02   9.965422088E+01  -2.988733012E+01  -9.804923634E+01   9.965401096E-05
   1.310900000E-02   9.965328198E+01  -2.988704960E+01  -9.805881259E+01   9.965307324E-05
   1.311000000E-02   9.974930446E+01  -1.497442410E+01  -9.806381362E+01   9.974908795E-05
   1.311100000E-02   9.984839761E+01  -9.981512244E-03  -9.803536431E+01   9.984818315E-05
   1.311200000E-02   9.982326673E+01  -4.180305138E+00  -9.801189812E+01   9.982305432E-05
   1.311300000E-02   9.975511176E+01  -1.487339683E+01  -9.799962054E+01   9.975489546E-05
   1.311400000E-02   9.967347306E+01  -2.748007521E+01  -9.800171306E+01   9.967326332E-05
   1.311500000E-02   9.965700879E+01  -2.988816633E+01  -9.801475347E+01   9.965679476E-05
   1.311600000E-02   9.965608658E+01  -2.988788997E+01  -9.802729415E+01   9.965587160E-05
   1.311700000E-02   9.965515728E+01  -2.988761188E+01  -9.803876704E+01   9.965494761E-05
   1.311800000E-02   9.965422672E+01  -2.988733192E+01  -9.804923272E+01   9.965401196E-05
   1.311900000E-02   9.965328995E+01  -2.988705006E+01  -9.805880150E+01   9.965307358E-05
   1.312000000E-02   9.974968197E+01  -1.491630562E+01  -9.806379443E+01   9.974946910E-05
   1.312100000E-02   9.984839647E+01  -9.981513061E-03  -9.803537163E+01   9.984818202E-05
   1.312200000E-02   9.982326267E+01  -4.181401622E+00  -9.801188809E+01   9.982305026E-05
   1.312300000E-02   9.975507998E+01  -1.487897547E+01  -9.799960970E+01   9.975486367E-05
   1.312400000E-02   9.967351724E+01  -2.747391587E+01  -9.800170489E+01   9.967330750E-05
   1.312500000E-02   9.965701184E+01  -2.988816724E+01  -9.801475030E+01   9.965679782E-05
   1.312600000E-02   9.965609036E+01  -2.988789111E+01  -9.802728169E+01   9.965587538E-05
   1.312700000E-02   9.965516055E+01  -2.988761285E+01  -9.803875943E+01   9.965495086E-05
   1.312800000E-02   9.965422982E+01  -2.988733285E+01  -9.804922894E+01   9.965401509E-05
   1.312900000E-02   9.965329308E+01  -2.988705254E+01  -9.805879447E+01   9.965307672E-05
   1.313000000E-02   9.974916449E+01  -1.499714907E+01  -9.806380288E+01   9.974894764E-05
   1.313100000E-02   9.984840492E+01  -9.981513143E-03  -9.803535611E+01   9.984819011E-05
   1.313200000E-02   9.982327462E+01  -4.180257710E+00  -9.801188616E+01   9.982306210E-05
   1.313300000E-02   9.975512419E+01  -1.487267410E+01  -9.799961187E+01   9.975490789E-05
   1.313400000E-02   9.967348548E+01  -2.747936367E+01  -9.800170389E+01   9.967327574E-05
   1.313500000E-02   9.965701656E+01  -2.988816828E+01  -9.801474382E+01   9.965680218E-05
   1.313600000E-02   9.965609435E+01  -2.988789192E+01  -9.802728464E+01   9.965587902E-05
   1.313700000E-02   9.965516505E+01  -2.988761383E+01  -9.803875769E+01   9.965495503E-05
   1.313800000E-02   9.965423449E+01  -2.988733387E+01  -9.804922352E+01   9.965401938E-05
   1.313900000E-02   9.965329773E+01  -2.988705356E+01  -9.805878624E+01   9.965308100E-05
   1.314000000E-02   9.974954200E+01  -1.493902963E+01  -9.806378750E+01   9.974932878E-05
   1.314100000E-02   9.984840451E+01  -9.981513452E-03  -9.803535856E+01   9.984818970E-05
   1.314200000E-02   9.982327057E+01  -4.181317342E+00  -9.801188377E+01   9.982305805E-05
   1.314300000E-02   9.975509240E+01  -1.487820123E+01  -9.799960333E+01   9.975487610E-05
   1.314400000E-02   9.967352966E+01  -2.747315218E+01  -9.800169572E+01   9.967331991E-05
   1.314500000E-02   9.965701620E+01  -2.988816888E+01  -9.801474136E+01   9.965680454E-05
   1.314600000E-02   9.965609469E+01  -2.988789203E+01  -9.802727246E+01   9.965588527E-05
   1.314700000E-02   9.965517106E+01  -2.988761377E+01  -9.803875249E+01   9.965495619E-05
   1.314800000E-02   9.965423555E+01  -2.988733531E+01  -9.804921990E+01   9.965402493E-05
   1.314900000E-02   9.965330356E+01  -2.988705380E+01  -9.805878847E+01   9.965308791E-05
   1.315000000E-02   9.974947577E+01  -1.495040146E+01  -9.806378595E+01   9.974925855E-05
   1.315100000E-02   9.984841222E+01  -9.981514042E-03  -9.803534982E+01   9.984819706E-05
   1.315200000E-02   9.982328252E+01  -4.180140512E+00  -9.801188184E+01   9.982306989E-05
   1.315300000E-02   9.975508341E+01  -1.488014977E+01  -9.799959479E+01   9.975486711E-05
   1.315400000E-02   9.967349790E+01  -2.747855353E+01  -9.800169204E+01   9.967328816E-05
   1.315500000E-02   9.965702347E+01  -2.988816997E+01  -9.801474174E+01   9.965680874E-05
   1.315600000E-02   9.965610196E+01  -2.988789383E+01  -9.802726965E+01   9.965588627E-05
   1.315700000E-02   9.965517282E+01  -2.988761578E+01  -9.803874072E+01   9.965496245E-05
   1.315800000E-02   9.965424226E+01  -2.988733582E+01  -9.804920670E+01   9.965402680E-05
   1.315900000E-02   9.965330479E+01  -2.988705529E+01  -9.805878287E+01   9.965308771E-05
   1.316000000E-02   9.974940204E+01  -1.496175364E+01  -9.806378058E+01   9.974918845E-05
   1.316100000E-02   9.984841305E+01  -9.981514124E-03  -9.803533145E+01   9.984819788E-05
   1.316200000E-02   9.982326818E+01  -4.182832014E+00  -9.801186576E+01   9.982305556E-05
   1.316300000E-02   9.975510483E+01  -1.487733296E+01  -9.799959466E+01   9.975488853E-05
   1.316400000E-02   9.967349272E+01  -2.747986076E+01  -9.800169269E+01   9.967328298E-05
   1.316500000E-02   9.965702397E+01  -2.988817202E+01  -9.801473171E+01   9.965680924E-05
   1.316600000E-02   9.965610246E+01  -2.988789433E+01  -9.802726295E+01   9.965589269E-05
   1.316700000E-02   9.965517883E+01  -2.988761727E+01  -9.803874315E+01   9.965496361E-05
   1.316800000E-02   9.965424332E+01  -2.988733762E+01  -9.804921070E+01   9.965403235E-05
   1.316900000E-02   9.965330513E+01  -2.988705575E+01  -9.805877321E+01   9.965309533E-05
   1.317000000E-02   9.974978337E+01  -1.490363515E+01  -9.806376139E+01   9.974956959E-05
   1.317100000E-02   9.984841953E+01  -9.981514360E-03  -9.803534163E+01   9.984820402E-05
   1.317200000E-02   9.982329042E+01  -4.179957924E+00  -9.801187522E+01   9.982307768E-05
   1.317300000E-02   9.975509585E+01  -1.487923540E+01  -9.799958842E+01   9.975487955E-05
   1.317400000E-02   9.967351032E+01  -2.747765499E+01  -9.800168287E+01   9.967330057E-05
   1.317500000E-02   9.965703124E+01  -2.988817192E+01  -9.801472924E+01   9.965681615E-05
   1.317600000E-02   9.965610973E+01  -2.988789577E+01  -9.802726014E+01   9.965589369E-05
   1.317700000E-02   9.965518059E+01  -2.988761773E+01  -9.803873137E+01   9.965496395E-05
   1.317800000E-02   9.965424933E+01  -2.988733756E+01  -9.804920529E+01   9.965403215E-05
   1.317900000E-02   9.965331240E+01  -2.988705720E+01  -9.805877545E+01   9.965309497E-05
   1.318000000E-02   9.974926207E+01  -1.498447766E+01  -9.806377747E+01   9.974904450E-05
   1.318100000E-02   9.984842035E+01  -9.981515023E-03  -9.803532802E+01   9.984820484E-05
   1.318200000E-02   9.982327608E+01  -4.182619377E+00  -9.801186143E+01   9.982306334E-05
   1.318300000E-02   9.975511726E+01  -1.487637668E+01  -9.799958829E+01   9.975490096E-05
   1.318400000E-02   9.967347856E+01  -2.748299337E+01  -9.800168186E+01   9.967326882E-05
   1.318500000E-02   9.965703174E+01  -2.988817278E+01  -9.801472206E+01   9.965681665E-05
   1.318600000E-02   9.965610953E+01  -2.988789572E+01  -9.802726280E+01   9.965589349E-05
   1.318700000E-02   9.965518023E+01  -2.988761762E+01  -9.803873576E+01   9.965496950E-05
   1.318800000E-02   9.965424967E+01  -2.988733921E+01  -9.804920151E+01   9.965403976E-05
   1.318900000E-02   9.965331291E+01  -2.988705770E+01  -9.805876415E+01   9.965310275E-05
   1.319000000E-02   9.974964340E+01  -1.492635916E+01  -9.806375828E+01   9.974942565E-05
   1.319100000E-02   9.984842208E+01  -9.981514909E-03  -9.803533534E+01   9.984820825E-05
   1.319200000E-02   9.982327202E+01  -4.183601711E+00  -9.801185141E+01   9.982306147E-05
   1.319300000E-02   9.975508547E+01  -1.488179288E+01  -9.799957745E+01   9.975486917E-05
   1.319400000E-02   9.967352273E+01  -2.747667444E+01  -9.800167369E+01   9.967331299E-05
   1.319500000E-02   9.965703423E+01  -2.988817387E+01  -9.801471960E+01   9.965682357E-05
   1.319600000E-02   9.965610987E+01  -2.988789772E+01  -9.802725062E+01   9.965590111E-05
   1.319700000E-02   9.965518694E+01  -2.988761968E+01  -9.803872203E+01   9.965497137E-05
   1.319800000E-02   9.965425089E+01  -2.988733951E+01  -9.804919610E+01   9.965403956E-05
   1.319900000E-02   9.965331874E+01  -2.988705915E+01  -9.805876638E+01   9.965310239E-05
   1.320000000E-02   9.974957373E+01  -1.493767083E+01  -9.806375671E+01   9.974935581E-05
   1.320100000E-02   9.984842766E+01  -9.981515341E-03  -9.803531982E+01   9.984821179E-05
   1.320200000E-02   9.982328397E+01  -4.182349713E+00  -9.801185482E+01   9.982307113E-05
   1.320300000E-02   9.975512968E+01  -1.487534000E+01  -9.799957657E+01   9.975491338E-05
   1.320400000E-02   9.967349097E+01  -2.748197276E+01  -9.800167269E+01   9.967328123E-05
   1.320500000E-02   9.965703897E+01  -2.988817457E+01  -9.801472015E+01   9.965682353E-05
   1.320600000E-02   9.965611714E+01  -2.988789762E+01  -9.802724923E+01   9.965590075E-05
   1.320700000E-02   9.965518800E+01  -2.988761957E+01  -9.803871879E+01   9.965497692E-05
   1.320800000E-02   9.965425744E+01  -2.988734116E+01  -9.804918468E+01   9.965404127E-05
   1.320900000E-02   9.965332068E+01  -2.988705965E+01  -9.805875366E+01   9.965310289E-05
   1.321000000E-02   9.974949961E+01  -1.494908318E+01  -9.806375517E+01   9.974928533E-05
   1.321100000E-02   9.984842848E+01  -9.981516005E-03  -9.803530622E+01   9.984821261E-05
   1.321200000E-02   9.982326963E+01  -4.184970760E+00  -9.801184102E+01   9.982305679E-05
   1.321300000E-02   9.975509790E+01  -1.488071939E+01  -9.799957107E+01   9.975488160E-05
   1.321400000E-02   9.967353515E+01  -2.747561761E+01  -9.800166451E+01   9.967332068E-05
   1.321500000E-02   9.965704256E+01  -2.988817493E+01  -9.801470925E+01   9.965682712E-05
   1.321600000E-02   9.965612038E+01  -2.988789859E+01  -9.802724397E+01   9.965590399E-05
   1.321700000E-02   9.965519111E+01  -2.988762050E+01  -9.803871935E+01   9.965498000E-05
   1.321800000E-02   9.965426054E+01  -2.988734209E+01  -9.804918236E+01   9.965404440E-05
   1.321900000E-02   9.965332381E+01  -2.988706060E+01  -9.805874663E+01   9.965310603E-05
   1.322000000E-02   9.974942926E+01  -1.496050103E+01  -9.806374981E+01   9.974921480E-05
   1.322100000E-02   9.984843020E+01  -9.981515891E-03  -9.803531163E+01   9.984821875E-05
   1.322200000E-02   9.982328958E+01  -4.172693069E+00  -9.801250474E+01   9.982307383E-05
   1.322300000E-02   9.975508891E+01  -1.486928379E+01  -9.800043915E+01   9.975487552E-05
   1.322400000E-02   9.967350339E+01  -2.746784213E+01  -9.800244745E+01   9.967328892E-05
   1.322500000E-02   9.965722981E+01  -2.984753173E+01  -9.801525880E+01   9.965701652E-05
   1.322600000E-02   9.965604522E+01  -2.988787719E+01  -9.802778805E+01   9.965583164E-05
   1.322700000E-02   9.965512214E+01  -2.988759907E+01  -9.803921739E+01   9.965490767E-05
   1.322800000E-02   9.965418662E+01  -2.988732067E+01  -9.804964731E+01   9.965397184E-05
   1.322900000E-02   9.965324843E+01  -2.988703911E+01  -9.805917662E+01   9.965303347E-05
   1.323000000E-02   9.974928335E+01  -1.497179574E+01  -9.806414498E+01   9.974906861E-05
   1.323100000E-02   9.984835950E+01  -9.981508871E-03  -9.803566995E+01   9.984814681E-05
   1.323200000E-02   9.982325464E+01  -4.176642348E+00  -9.801217926E+01   9.982304276E-05
   1.323300000E-02   9.975511033E+01  -1.486828622E+01  -9.799987370E+01   9.975489402E-05
   1.323400000E-02   9.967347163E+01  -2.747505114E+01  -9.800194479E+01   9.967325716E-05
   1.323500000E-02   9.965724146E+01  -2.984803577E+01  -9.801480587E+01   9.965702159E-05
   1.323600000E-02   9.965606083E+01  -2.988788302E+01  -9.802736470E+01   9.965585127E-05
   1.323700000E-02   9.965513790E+01  -2.988760495E+01  -9.803883706E+01   9.965491800E-05
   1.323800000E-02   9.965420166E+01  -2.988732475E+01  -9.804930860E+01   9.965399091E-05
   1.323900000E-02   9.965326961E+01  -2.988704439E+01  -9.805886976E+01   9.965304893E-05
   1.324000000E-02   9.974967994E+01  -1.491367822E+01  -9.806385494E+01   9.974946066E-05
   1.324100000E-02   9.984837361E+01  -9.981510271E-03  -9.803543218E+01   9.984816022E-05
   1.324200000E-02   9.982325516E+01  -4.179076399E+00  -9.801194341E+01   9.982304307E-05
   1.324300000E-02   9.975507854E+01  -1.487576536E+01  -9.799966296E+01   9.975486224E-05
   1.324400000E-02   9.967351581E+01  -2.747076953E+01  -9.800175085E+01   9.967330134E-05
   1.324500000E-02   9.965699132E+01  -2.988816071E+01  -9.801479923E+01   9.965677691E-05
   1.324600000E-02   9.965606961E+01  -2.988788451E+01  -9.802733659E+01   9.965585425E-05
   1.324700000E-02   9.965513954E+01  -2.988760619E+01  -9.803881759E+01   9.965492358E-05
   1.324800000E-02   9.965420884E+01  -2.988732614E+01  -9.804928207E+01   9.965399235E-05
   1.324900000E-02   9.965327186E+01  -2.988704583E+01  -9.805884969E+01   9.965305513E-05
   1.325000000E-02   9.974915865E+01  -1.499452166E+01  -9.806384814E+01   9.974894285E-05
   1.325100000E-02   9.984838206E+01  -9.981511284E-03  -9.803539854E+01   9.984816832E-05
   1.325200000E-02   9.982326711E+01  -4.178033094E+00  -9.801193156E+01   9.982305490E-05
   1.325300000E-02   9.975512275E+01  -1.486960687E+01  -9.799964683E+01   9.975490645E-05
   1.325400000E-02   9.967348405E+01  -2.747635660E+01  -9.800173955E+01   9.967326958E-05
   1.325500000E-02   9.965699340E+01  -2.988816251E+01  -9.801478672E+01   9.965677655E-05
   1.325600000E-02   9.965607566E+01  -2.988788631E+01  -9.802732616E+01   9.965586000E-05
   1.325700000E-02   9.965514753E+01  -2.988760821E+01  -9.803879789E+01   9.965493123E-05
   1.325800000E-02   9.965421624E+01  -2.988732798E+01  -9.804926930E+01   9.965399940E-05
   1.325900000E-02   9.965327913E+01  -2.988704602E+01  -9.805883810E+01   9.965306205E-05
   1.326000000E-02   9.974953997E+01  -1.493640318E+01  -9.806382132E+01   9.974932399E-05
   1.326100000E-02   9.984838452E+01  -9.981511243E-03  -9.803539145E+01   9.984816791E-05
   1.326200000E-02   9.982326306E+01  -4.179191931E+00  -9.801191391E+01   9.982305085E-05
   1.326300000E-02   9.975509097E+01  -1.487527411E+01  -9.799963370E+01   9.975487466E-05
   1.326400000E-02   9.967352823E+01  -2.747028497E+01  -9.800172146E+01   9.967331376E-05
   1.326500000E-02   9.965699670E+01  -2.988816346E+01  -9.801476850E+01   9.965678339E-05
   1.326600000E-02   9.965607453E+01  -2.988788712E+01  -9.802730606E+01   9.965586026E-05
   1.326700000E-02   9.965515143E+01  -2.988760903E+01  -9.803878135E+01   9.965493627E-05
   1.326800000E-02   9.965421614E+01  -2.988732908E+01  -9.804925044E+01   9.965400655E-05
   1.326900000E-02   9.965327795E+01  -2.988704876E+01  -9.805881609E+01   9.965306957E-05
   1.327000000E-02   9.974947000E+01  -1.494776275E+01  -9.806381595E+01   9.974925385E-05
   1.327100000E-02   9.984838937E+01  -9.981512183E-03  -9.803537986E+01   9.984817527E-05
   1.327200000E-02   9.982327500E+01  -4.178106935E+00  -9.801191197E+01   9.982306269E-05
   1.327300000E-02   9.975508197E+01  -1.487735138E+01  -9.799962516E+01   9.975486567E-05
   1.327400000E-02   9.967349646E+01  -2.747581290E+01  -9.800171778E+01   9.967328199E-05
   1.327500000E-02   9.965700057E+01  -2.988816424E+01  -9.801476964E+01   9.965678690E-05
   1.327600000E-02   9.965607906E+01  -2.988788810E+01  -9.802730038E+01   9.965586443E-05
   1.327700000E-02   9.965515612E+01  -2.988761005E+01  -9.803877143E+01   9.965494060E-05
   1.327800000E-02   9.965422078E+01  -2.988733009E+01  -9.804923740E+01   9.965401087E-05
   1.327900000E-02   9.965328188E+01  -2.988704957E+01  -9.805881356E+01   9.965307314E-05
   1.328000000E-02   9.974940000E+01  -1.495912719E+01  -9.806381058E+01   9.974918367E-05
   1.328100000E-02   9.984839782E+01  -9.981512265E-03  -9.803536148E+01   9.984818064E-05
   1.328200000E-02   9.982326296E+01  -4.180886390E+00  -9.801189589E+01   9.982305054E-05
   1.328300000E-02   9.975510339E+01  -1.487466066E+01  -9.799961970E+01   9.975488709E-05
   1.328400000E-02   9.967349128E+01  -2.747724329E+01  -9.800171576E+01   9.967327681E-05
   1.328500000E-02   9.965700869E+01  -2.988816630E+01  -9.801475483E+01   9.965679467E-05
   1.328600000E-02   9.965608718E+01  -2.988789016E+01  -9.802728606E+01   9.965587220E-05
   1.328700000E-02   9.965515735E+01  -2.988761190E+01  -9.803876623E+01   9.965494176E-05
   1.328800000E-02   9.965422662E+01  -2.988733189E+01  -9.804923377E+01   9.965401050E-05
   1.328900000E-02   9.965328986E+01  -2.988705003E+01  -9.805880247E+01   9.965307349E-05
   1.329000000E-02   9.974978133E+01  -1.490100871E+01  -9.806379139E+01   9.974956481E-05
   1.329100000E-02   9.984839668E+01  -9.981512501E-03  -9.803537166E+01   9.984818223E-05
   1.329200000E-02   9.982328289E+01  -4.178099624E+00  -9.801190002E+01   9.982307047E-05
   1.329300000E-02   9.975509441E+01  -1.487668419E+01  -9.799961116E+01   9.975487811E-05
   1.329400000E-02   9.967350888E+01  -2.747515668E+01  -9.800170593E+01   9.967329441E-05
   1.329500000E-02   9.965701175E+01  -2.988816721E+01  -9.801475166E+01   9.965679773E-05
   1.329600000E-02   9.965609026E+01  -2.988789108E+01  -9.802728296E+01   9.965587529E-05
   1.329700000E-02   9.965516045E+01  -2.988761283E+01  -9.803876059E+01   9.965494487E-05
   1.329800000E-02   9.965422973E+01  -2.988733283E+01  -9.804922999E+01   9.965401361E-05
   1.329900000E-02   9.965329299E+01  -2.988705251E+01  -9.805879543E+01   9.965307662E-05
   1.330000000E-02   9.974926385E+01  -1.498185216E+01  -9.806379984E+01   9.974904699E-05
   1.330100000E-02   9.984840513E+01  -9.981513165E-03  -9.803535328E+01   9.984819032E-05
   1.330200000E-02   9.982327085E+01  -4.180841097E+00  -9.801188394E+01   9.982305833E-05
   1.330300000E-02   9.975511582E+01  -1.487394012E+01  -9.799961103E+01   9.975489952E-05
   1.330400000E-02   9.967347712E+01  -2.748060571E+01  -9.800170493E+01   9.967326265E-05
   1.330500000E-02   9.965701646E+01  -2.988816825E+01  -9.801474518E+01   9.965680208E-05
   1.330600000E-02   9.965609426E+01  -2.988789190E+01  -9.802728591E+01   9.965587892E-05
   1.330700000E-02   9.965516496E+01  -2.988761380E+01  -9.803875885E+01   9.965494902E-05
   1.330800000E-02   9.965423439E+01  -2.988733384E+01  -9.804922458E+01   9.965401792E-05
   1.330900000E-02   9.965329763E+01  -2.988705353E+01  -9.805878720E+01   9.965308091E-05
   1.331000000E-02   9.974964136E+01  -1.492373272E+01  -9.806378446E+01   9.974942449E-05
   1.331100000E-02   9.984840399E+01  -9.981513400E-03  -9.803536537E+01   9.984818919E-05
   1.331200000E-02   9.982326679E+01  -4.181902020E+00  -9.801188155E+01   9.982305428E-05
   1.331300000E-02   9.975508404E+01  -1.487946753E+01  -9.799960248E+01   9.975486773E-05
   1.331400000E-02   9.967352130E+01  -2.747439680E+01  -9.800169676E+01   9.967330683E-05
   1.331500000E-02   9.965701611E+01  -2.988816885E+01  -9.801474272E+01   9.965680173E-05
   1.331600000E-02   9.965609460E+01  -2.988789200E+01  -9.802727373E+01   9.965587926E-05
   1.331700000E-02   9.965517166E+01  -2.988761395E+01  -9.803874512E+01   9.965495544E-05
   1.331800000E-02   9.965423562E+01  -2.988733533E+01  -9.804921917E+01   9.965402500E-05
   1.331900000E-02   9.965329726E+01  -2.988705378E+01  -9.805878944E+01   9.965308782E-05
   1.332000000E-02   9.974957560E+01  -1.493503307E+01  -9.806378290E+01   9.974935838E-05
   1.332100000E-02   9.984841244E+01  -9.981514064E-03  -9.803534699E+01   9.984819728E-05
   1.332200000E-02   9.982327874E+01  -4.180726022E+00  -9.801187961E+01   9.982306612E-05
   1.332300000E-02   9.975512825E+01  -1.487312173E+01  -9.799959932E+01   9.975491195E-05
   1.332400000E-02   9.967348954E+01  -2.747980005E+01  -9.800169309E+01   9.967327507E-05
   1.332500000E-02   9.965702370E+01  -2.988817004E+01  -9.801473849E+01   9.965680896E-05
   1.332600000E-02   9.965610187E+01  -2.988789380E+01  -9.802727092E+01   9.965588618E-05
   1.332700000E-02   9.965517273E+01  -2.988761575E+01  -9.803874187E+01   9.965495644E-05
   1.332800000E-02   9.965424216E+01  -2.988733579E+01  -9.804921396E+01   9.965402534E-05
   1.332900000E-02   9.965330540E+01  -2.988705548E+01  -9.805877814E+01   9.965308833E-05
   1.333000000E-02   9.974950139E+01  -1.494645673E+01  -9.806377754E+01   9.974928418E-05
   1.333100000E-02   9.984841326E+01  -9.981514146E-03  -9.803533148E+01   9.984819809E-05
   1.333200000E-02   9.982326441E+01  -4.183418566E+00  -9.801186353E+01   9.982305178E-05
   1.333300000E-02   9.975509646E+01  -1.487860294E+01  -9.799959382E+01   9.975488016E-05
   1.333400000E-02   9.967353372E+01  -2.747354471E+01  -9.800168758E+01   9.967331925E-05
   1.333500000E-02   9.965702387E+01  -2.988817080E+01  -9.801473307E+01   9.965680914E-05
   1.333600000E-02   9.965610237E+01  -2.988789395E+01  -9.802726422E+01   9.965588668E-05
   1.333700000E-02   9.965517873E+01  -2.988761569E+01  -9.803874430E+01   9.965496215E-05
   1.333800000E-02   9.965424323E+01  -2.988733723E+01  -9.804921176E+01   9.965403225E-05
   1.333900000E-02   9.965330504E+01  -2.988705573E+01  -9.805877417E+01   9.965309524E-05
   1.334000000E-02   9.974943112E+01  -1.495786327E+01  -9.806377218E+01   9.974921373E-05
   1.334100000E-02   9.984841975E+01  -9.981514381E-03  -9.803533880E+01   9.984820151E-05
   1.334200000E-02   9.982328664E+01  -4.180545881E+00  -9.801187300E+01   9.982307391E-05
   1.334300000E-02   9.975508747E+01  -1.488050716E+01  -9.799958757E+01   9.975487117E-05
   1.334400000E-02   9.967350196E+01  -2.747890341E+01  -9.800168391E+01   9.967328749E-05
   1.334500000E-02   9.965703115E+01  -2.988817189E+01  -9.801473060E+01   9.965681606E-05
   1.334600000E-02   9.965610964E+01  -2.988789575E+01  -9.802726140E+01   9.965589359E-05
   1.334700000E-02   9.965518050E+01  -2.988761770E+01  -9.803873253E+01   9.965496385E-05
   1.334800000E-02   9.965424994E+01  -2.988733774E+01  -9.804919856E+01   9.965403276E-05
   1.334900000E-02   9.965331246E+01  -2.988705722E+01  -9.805877477E+01   9.965309503E-05
   1.335000000E-02   9.974936143E+01  -1.496918075E+01  -9.806377443E+01   9.974914386E-05
   1.335100000E-02   9.984842057E+01  -9.981515045E-03  -9.803532519E+01   9.984820505E-05
   1.335200000E-02   9.982327230E+01  -4.183208039E+00  -9.801185921E+01   9.982305957E-05
   1.335300000E-02   9.975510889E+01  -1.487765018E+01  -9.799958744E+01   9.975489259E-05
   1.335400000E-02   9.967347020E+01  -2.748424303E+01  -9.800168290E+01   9.967325572E-05
   1.335500000E-02   9.965703164E+01  -2.988817275E+01  -9.801472342E+01   9.965681656E-05
   1.335600000E-02   9.965610944E+01  -2.988789569E+01  -9.802726407E+01   9.965589339E-05
   1.335700000E-02   9.965518014E+01  -2.988761759E+01  -9.803873692E+01   9.965496941E-05
   1.335800000E-02   9.965424957E+01  -2.988733918E+01  -9.804920256E+01   9.965403375E-05
   1.335900000E-02   9.965331281E+01  -2.988705768E+01  -9.805876511E+01   9.965310129E-05
   1.336000000E-02   9.974974276E+01  -1.491106225E+01  -9.806375524E+01   9.974952501E-05
   1.336100000E-02   9.984842229E+01  -9.981514931E-03  -9.803533537E+01   9.984820392E-05
   1.336200000E-02   9.982326824E+01  -4.184191988E+00  -9.801184918E+01   9.982305551E-05
   1.336300000E-02   9.975507711E+01  -1.488306681E+01  -9.799957661E+01   9.975486080E-05
   1.336400000E-02   9.967351437E+01  -2.747792544E+01  -9.800167473E+01   9.967329991E-05
   1.336500000E-02   9.965703413E+01  -2.988817384E+01  -9.801472095E+01   9.965681892E-05
   1.336600000E-02   9.965610978E+01  -2.988789770E+01  -9.802725189E+01   9.965589965E-05
   1.336700000E-02   9.965518684E+01  -2.988761965E+01  -9.803872318E+01   9.965497127E-05
   1.336800000E-02   9.965425080E+01  -2.988733948E+01  -9.804919715E+01   9.965403947E-05
   1.336900000E-02   9.965331865E+01  -2.988705912E+01  -9.805876735E+01   9.965310229E-05
   1.337000000E-02   9.974922146E+01  -1.499190477E+01  -9.806376752E+01   9.974900354E-05
   1.337100000E-02   9.984842788E+01  -9.981515362E-03  -9.803532176E+01   9.984821201E-05
   1.337200000E-02   9.982328020E+01  -4.182940142E+00  -9.801185488E+01   9.982306736E-05
   1.337300000E-02   9.975512132E+01  -1.487661555E+01  -9.799957573E+01   9.975490502E-05
   1.337400000E-02   9.967348261E+01  -2.748322499E+01  -9.800167869E+01   9.967326814E-05
   1.337500000E-02   9.965703941E+01  -2.988817470E+01  -9.801471377E+01   9.965682397E-05
   1.337600000E-02   9.965611721E+01  -2.988789764E+01  -9.802725456E+01   9.965590081E-05
   1.337700000E-02   9.965518791E+01  -2.988761954E+01  -9.803872137E+01   9.965497091E-05
   1.337800000E-02   9.965425734E+01  -2.988734113E+01  -9.804919194E+01   9.965403981E-05
   1.337900000E-02   9.965332058E+01  -2.988705963E+01  -9.805875605E+01   9.965310280E-05
   1.338000000E-02   9.974959897E+01  -1.493378627E+01  -9.806375213E+01   9.974938104E-05
   1.338100000E-02   9.984842674E+01  -9.981515830E-03  -9.803532908E+01   9.984821087E-05
   1.338200000E-02   9.982327614E+01  -4.183896572E+00  -9.801184486E+01   9.982306330E-05
   1.338300000E-02   9.975508953E+01  -1.488199536E+01  -9.799957023E+01   9.975487323E-05
   1.338400000E-02   9.967352679E+01  -2.747687175E+01  -9.800166556E+01   9.967331232E-05
   1.338500000E-02   9.965704246E+01  -2.988817490E+01  -9.801471061E+01   9.965682703E-05
   1.338600000E-02   9.965612029E+01  -2.988789856E+01  -9.802724524E+01   9.965590390E-05
   1.338700000E-02   9.965519101E+01  -2.988762047E+01  -9.803872051E+01   9.965497402E-05
   1.338800000E-02   9.965426045E+01  -2.988734206E+01  -9.804918341E+01   9.965404292E-05
   1.338900000E-02   9.965332371E+01  -2.988706057E+01  -9.805875377E+01   9.965310593E-05
   1.339000000E-02   9.974952909E+01  -1.494513263E+01  -9.806374676E+01   9.974931099E-05
   1.339100000E-02   9.984843042E+01  -9.981515912E-03  -9.803531357E+01   9.984821624E-05
   1.339200000E-02   9.982328581E+01  -4.182618581E+00  -9.801184827E+01   9.982307515E-05
   1.339300000E-02   9.975508054E+01  -1.488380260E+01  -9.799956932E+01   9.975486423E-05
   1.339400000E-02   9.967349503E+01  -2.748213506E+01  -9.800166951E+01   9.967328056E-05
   1.339500000E-02   9.965704211E+01  -2.988817670E+01  -9.801471286E+01   9.965682667E-05
   1.339600000E-02   9.965612062E+01  -2.988790057E+01  -9.802724073E+01   9.965590423E-05
   1.339700000E-02   9.965519151E+01  -2.988762253E+01  -9.803870823E+01   9.965498041E-05
   1.339800000E-02   9.965426025E+01  -2.988734236E+01  -9.804918414E+01   9.965404410E-05
   1.339900000E-02   9.965332335E+01  -2.988706046E+01  -9.805875125E+01   9.965311146E-05
   1.340000000E-02   9.974945901E+01  -1.495650933E+01  -9.806374902E+01   9.974924073E-05
   1.340100000E-02   9.984843601E+01  -9.981516343E-03  -9.803529996E+01   9.984821978E-05
   1.340200000E-02   9.982327375E+01  -4.185215218E+00  -9.801183447E+01   9.982306081E-05
   1.340300000E-02   9.975510196E+01  -1.488084939E+01  -9.799956385E+01   9.975488566E-05
   1.340400000E-02   9.967348985E+01  -2.748330826E+01  -9.800166253E+01   9.967327538E-05
   1.340500000E-02   9.965704208E+01  -2.988817669E+01  -9.801470860E+01   9.965682941E-05
   1.340600000E-02   9.965612026E+01  -2.988790046E+01  -9.802723792E+01   9.965590977E-05
   1.340700000E-02   9.965519733E+01  -2.988762242E+01  -9.803871116E+01   9.965498143E-05
   1.340800000E-02   9.965426204E+01  -2.988734247E+01  -9.804917422E+01   9.965405033E-05
   1.340900000E-02   9.965333003E+01  -2.988706215E+01  -9.805874471E+01   9.965311335E-05
   1.341000000E-02   9.974983651E+01  -1.489839083E+01  -9.806372983E+01   9.974961823E-05
   1.341100000E-02   9.984843487E+01  -9.981516811E-03  -9.803531014E+01   9.984821865E-05
   1.341200000E-02   9.982329371E+01  -4.182247395E+00  -9.801184394E+01   9.982308076E-05
   1.341300000E-02   9.975509298E+01  -1.488262197E+01  -9.799956295E+01   9.975487667E-05
   1.341400000E-02   9.967350745E+01  -2.748097456E+01  -9.800166034E+01   9.967329298E-05
   1.341500000E-02   9.965704988E+01  -2.988817747E+01  -9.801470321E+01   9.965683409E-05
   1.341600000E-02   9.965612839E+01  -2.988790061E+01  -9.802723122E+01   9.965591165E-05
   1.341700000E-02   9.965519858E+01  -2.988762236E+01  -9.803870738E+01   9.965498124E-05
   1.341800000E-02   9.965426786E+01  -2.988734390E+01  -9.804917677E+01   9.965404997E-05
   1.341900000E-02   9.965333112E+01  -2.988706241E+01  -9.805874219E+01   9.965311298E-05
   1.342000000E-02   9.974931522E+01  -1.497923335E+01  -9.806374591E+01   9.974909677E-05
   1.342100000E-02   9.984843855E+01  -9.981516894E-03  -9.803529653E+01   9.984822401E-05
   1.342200000E-02   9.982327936E+01  -4.184821574E+00  -9.801183015E+01   9.982306860E-05
   1.342300000E-02   9.975511439E+01  -1.487963948E+01  -9.799955748E+01   9.975489809E-05
   1.342400000E-02   9.967347569E+01  -2.748618950E+01  -9.800165666E+01   9.967326122E-05
   1.342500000E-02   9.965704952E+01  -2.988817855E+01  -9.801470365E+01   9.965683373E-05
   1.342600000E-02   9.965612803E+01  -2.988790241E+01  -9.802723459E+01   9.965591129E-05
   1.342700000E-02   9.965519892E+01  -2.988762437E+01  -9.803870327E+01   9.965498747E-05
   1.342800000E-02   9.965426836E+01  -2.988734442E+01  -9.804917120E+01   9.965405186E-05
   1.342900000E-02   9.965333092E+01  -2.988706389E+01  -9.805874419E+01   9.965311868E-05
   1.343000000E-02   9.974969655E+01  -1.492111484E+01  -9.806373053E+01   9.974947791E-05
   1.343100000E-02   9.984844217E+01  -9.981516779E-03  -9.803530672E+01   9.984822560E-05
   1.343200000E-02   9.982327759E+01  -4.185719976E+00  -9.801182547E+01   9.982306454E-05
   1.343300000E-02   9.975508260E+01  -1.488493536E+01  -9.799955427E+01   9.975486630E-05
   1.343400000E-02   9.967351987E+01  -2.747975427E+01  -9.800165116E+01   9.967330540E-05
   1.343500000E-02   9.965705002E+01  -2.988817870E+01  -9.801469647E+01   9.965683423E-05
   1.343600000E-02   9.965612784E+01  -2.988790235E+01  -9.802723103E+01   9.965591699E-05
   1.343700000E-02   9.965520474E+01  -2.988762426E+01  -9.803870621E+01   9.965498849E-05
   1.343800000E-02   9.965426945E+01  -2.988734431E+01  -9.804916902E+01   9.965405739E-05
   1.343900000E-02   9.965333126E+01  -2.988706399E+01  -9.805873313E+01   9.965312040E-05
   1.344000000E-02   9.974917145E+01  -1.500195737E+01  -9.806374280E+01   9.974895282E-05
   1.344100000E-02   9.984844299E+01  -9.981516861E-03  -9.803529310E+01   9.984822642E-05
   1.344200000E-02   9.982328726E+01  -4.184385661E+00  -9.801182583E+01   9.982307421E-05
   1.344300000E-02   9.975512681E+01  -1.487836883E+01  -9.799955110E+01   9.975491051E-05
   1.344400000E-02   9.967348811E+01  -2.748494059E+01  -9.800165512E+01   9.967327363E-05
   1.344500000E-02   9.965705256E+01  -2.988817931E+01  -9.801469873E+01   9.965684115E-05
   1.344600000E-02   9.965613435E+01  -2.988790245E+01  -9.802722653E+01   9.965591871E-05
   1.344700000E-02   9.965520669E+01  -2.988762441E+01  -9.803869393E+01   9.965498899E-05
   1.344800000E-02   9.965427543E+01  -2.988734579E+01  -9.804916976E+01   9.965405719E-05
   1.344900000E-02   9.965333852E+01  -2.988706425E+01  -9.805873679E+01   9.965312004E-05
   1.345000000E-02   9.974955277E+01  -1.494383791E+01  -9.806373124E+01   9.974933396E-05
   1.345100000E-02   9.984844667E+01  -9.981517292E-03  -9.803527759E+01   9.984822723E-05
   1.345200000E-02   9.982327291E+01  -4.186929946E+00  -9.801181509E+01   9.982305986E-05
   1.345300000E-02   9.975509503E+01  -1.488363743E+01  -9.799954790E+01   9.975487873E-05
   1.345400000E-02   9.967353228E+01  -2.747847800E+01  -9.800164198E+01   9.967331782E-05
   1.345500000E-02   9.965705779E+01  -2.988818064E+01  -9.801468683E+01   9.965684164E-05
   1.345600000E-02   9.965613561E+01  -2.988790430E+01  -9.802722152E+01   9.965591851E-05
   1.345700000E-02   9.965520633E+01  -2.988762621E+01  -9.803869686E+01   9.965499452E-05
   1.345800000E-02   9.965427577E+01  -2.988734626E+01  -9.804915983E+01   9.965405892E-05
   1.345900000E-02   9.965333903E+01  -2.988706594E+01  -9.805872407E+01   9.965312054E-05
   1.346000000E-02   9.974947876E+01  -1.495523219E+01  -9.806372588E+01   9.974926359E-05
   1.346100000E-02   9.984845030E+01  -9.981517761E-03  -9.803529254E+01   9.984823338E-05
   1.346200000E-02   9.982329516E+01  -4.183910843E+00  -9.801182684E+01   9.982308200E-05
   1.346300000E-02   9.975508604E+01  -1.488533868E+01  -9.799954699E+01   9.975486973E-05
   1.346400000E-02   9.967350052E+01  -2.748363828E+01  -9.800164594E+01   9.967328350E-05
   1.346500000E-02   9.965705743E+01  -2.988818054E+01  -9.801469198E+01   9.965684129E-05
   1.346600000E-02   9.965613595E+01  -2.988790440E+01  -9.802721701E+01   9.965591885E-05
   1.346700000E-02   9.965520684E+01  -2.988762636E+01  -9.803868458E+01   9.965499502E-05
   1.346800000E-02   9.965427557E+01  -2.988734620E+01  -9.804916056E+01   9.965406461E-05
   1.346900000E-02   9.965333867E+01  -2.988706584E+01  -9.805872773E+01   9.965312745E-05
   1.347000000E-02   9.974940899E+01  -1.496656193E+01  -9.806372813E+01   9.974919001E-05
   1.347100000E-02   9.984845112E+01  -9.981517843E-03  -9.803527893E+01   9.984823419E-05
   1.347200000E-02   9.982328081E+01  -4.186437294E+00  -9.801181305E+01   9.982306765E-05
   1.347300000E-02   9.975510746E+01  -1.488228638E+01  -9.799954152E+01   9.975489115E-05
   1.347400000E-02   9.967349535E+01  -2.748471139E+01  -9.800164659E+01   9.967327833E-05
   1.347500000E-02   9.965705740E+01  -2.988818125E+01  -9.801468955E+01   9.965684125E-05
   1.347600000E-02   9.965613559E+01  -2.988790429E+01  -9.802722183E+01   9.965592438E-05
   1.347700000E-02   9.965521265E+01  -2.988762625E+01  -9.803868897E+01   9.965499605E-05
   1.347800000E-02   9.965427737E+01  -2.988734784E+01  -9.804915681E+01   9.965406495E-05
   1.347900000E-02   9.965333847E+01  -2.988706614E+01  -9.805872973E+01   9.965312726E-05
   1.348000000E-02   9.974978650E+01  -1.490844247E+01  -9.806371275E+01   9.974956750E-05
   1.348100000E-02   9.984844998E+01  -9.981517729E-03  -9.803528911E+01   9.984823306E-05
   1.348200000E-02   9.982327674E+01  -4.187289632E+00  -9.801180837E+01   9.982306359E-05
   1.348300000E-02   9.975507567E+01  -1.488751816E+01  -9.799953832E+01   9.975485937E-05
   1.348400000E-02   9.967351294E+01  -2.748228572E+01  -9.800163676E+01   9.967329592E-05
   1.348500000E-02   9.965706047E+01  -2.988818249E+01  -9.801468234E+01   9.965684870E-05
   1.348600000E-02   9.965614226E+01  -2.988790635E+01  -9.802720750E+01   9.965592626E-05
   1.348700000E-02   9.965521391E+01  -2.988762810E+01  -9.803868991E+01   9.965499585E-05
   1.348800000E-02   9.965428318E+01  -2.988734810E+01  -9.804915464E+01   9.965406459E-05
   1.348900000E-02   9.965334644E+01  -2.988706624E+01  -9.805871867E+01   9.965312760E-05
   1.349000000E-02   9.974926520E+01  -1.498928500E+01  -9.806372502E+01   9.974904604E-05
   1.349100000E-02   9.984845080E+01  -9.981518160E-03  -9.803527550E+01   9.984823387E-05
   1.349200000E-02   9.982328642E+01  -4.185910087E+00  -9.801180872E+01   9.982307326E-05
   1.349300000E-02   9.975511988E+01  -1.488088722E+01  -9.799954048E+01   9.975490358E-05
   1.349400000E-02   9.967348118E+01  -2.748741099E+01  -9.800164072E+01   9.967326416E-05
   1.349500000E-02   9.965706228E+01  -2.988818233E+01  -9.801467872E+01   9.965684578E-05
   1.349600000E-02   9.965614008E+01  -2.988790526E+01  -9.802721663E+01   9.965592854E-05
   1.349700000E-02   9.965521698E+01  -2.988762716E+01  -9.803868962E+01   9.965500000E-05
   1.349800000E-02   9.965428164E+01  -2.988734876E+01  -9.804915540E+01   9.965406890E-05
   1.349900000E-02   9.965334345E+01  -2.988706725E+01  -9.805871807E+01   9.965313189E-05
   1.350000000E-02   9.974964272E+01  -1.493116649E+01  -9.806371346E+01   9.974942719E-05
   1.350100000E-02   9.984845253E+01  -9.981518046E-03  -9.803529045E+01   9.984824001E-05
   1.350200000E-02   9.982328236E+01  -4.186747242E+00  -9.801180633E+01   9.982307139E-05
   1.350300000E-02   9.975508810E+01  -1.488609816E+01  -9.799953194E+01   9.975487179E-05
   1.350400000E-02   9.967352536E+01  -2.748089120E+01  -9.800163522E+01   9.967330834E-05
   1.350500000E-02   9.965706193E+01  -2.988818341E+01  -9.801468102E+01   9.965684815E-05
   1.350600000E-02   9.965614042E+01  -2.988790727E+01  -9.802721208E+01   9.965592888E-05
   1.350700000E-02   9.965521748E+01  -2.988762922E+01  -9.803867732E+01   9.965500050E-05
   1.350800000E-02   9.965428144E+01  -2.988734905E+01  -9.804914999E+01   9.965406870E-05
   1.350900000E-02   9.965334309E+01  -2.988706714E+01  -9.805872031E+01   9.965313152E-05
   1.351000000E-02   9.974957291E+01  -1.494250060E+01  -9.806371190E+01   9.974935357E-05
   1.351100000E-02   9.984845811E+01  -9.981518710E-03  -9.803527494E+01   9.984824083E-05
   1.351200000E-02   9.982329432E+01  -4.185354353E+00  -9.801180974E+01   9.982308106E-05
   1.351300000E-02   9.975513231E+01  -1.487944786E+01  -9.799953640E+01   9.975491601E-05
   1.351400000E-02   9.967349360E+01  -2.748599549E+01  -9.800163650E+01   9.967327658E-05
   1.351500000E-02   9.965706952E+01  -2.988818340E+01  -9.801468157E+01   9.965685267E-05
   1.351600000E-02   9.965614769E+01  -2.988790716E+01  -9.802721069E+01   9.965592988E-05
   1.351700000E-02   9.965521855E+01  -2.988762911E+01  -9.803868028E+01   9.965500014E-05
   1.351800000E-02   9.965428799E+01  -2.988734916E+01  -9.804914621E+01   9.965406904E-05
   1.351900000E-02   9.965335051E+01  -2.988706863E+01  -9.805871613E+01   9.965313132E-05
   1.352000000E-02   9.974949894E+01  -1.495388956E+01  -9.806371035E+01   9.974927960E-05
   1.352100000E-02   9.984845893E+01  -9.981518792E-03  -9.803526133E+01   9.984824164E-05
   1.352200000E-02   9.982327996E+01  -4.187843292E+00  -9.801180129E+01   9.982306670E-05
   1.352300000E-02   9.975510053E+01  -1.488463768E+01  -9.799953319E+01   9.975488422E-05
   1.352400000E-02   9.967348841E+01  -2.748701841E+01  -9.800163219E+01   9.967327139E-05
   1.352500000E-02   9.965706970E+01  -2.988818345E+01  -9.801467423E+01   9.965685284E-05
   1.352600000E-02   9.965614819E+01  -2.988790731E+01  -9.802720257E+01   9.965593038E-05
   1.352700000E-02   9.965521835E+01  -2.988762905E+01  -9.803868271E+01   9.965500586E-05
   1.352800000E-02   9.965428762E+01  -2.988734905E+01  -9.804915021E+01   9.965407004E-05
   1.352900000E-02   9.965335086E+01  -2.988706873E+01  -9.805871267E+01   9.965313166E-05
   1.353000000E-02   9.974942463E+01  -1.496532985E+01  -9.806371263E+01   9.974920892E-05
   1.353100000E-02   9.984845779E+01  -9.981518678E-03  -9.803527628E+01   9.984824051E-05
   1.353200000E-02   9.982329993E+01  -4.184769109E+00  -9.801180770E+01   9.982308667E-05
   1.353300000E-02   9.975509154E+01  -1.488626154E+01  -9.799953000E+01   9.975487524E-05
   1.353400000E-02   9.967350601E+01  -2.748454117E+01  -9.800163000E+01   9.967328900E-05
   1.353500000E-02   9.965706934E+01  -2.988818406E+01  -9.801467654E+01   9.965685249E-05
   1.353600000E-02   9.965614783E+01  -2.988790720E+01  -9.802720738E+01   9.965593002E-05
   1.353700000E-02   9.965521869E+01  -2.988762915E+01  -9.803867236E+01   9.965500620E-05
   1.353800000E-02   9.965428813E+01  -2.988735075E+01  -9.804913701E+01   9.965407054E-05
   1.353900000E-02   9.965335066E+01  -2.988706903E+01  -9.805871327E+01   9.965313738E-05
   1.354000000E-02   9.974935515E+01  -1.497661359E+01  -9.806371106E+01   9.974913564E-05
   1.354100000E-02   9.984845861E+01  -9.981518760E-03  -9.803526076E+01   9.984824133E-05
   1.354200000E-02   9.982328558E+01  -4.187244841E+00  -9.801179696E+01   9.982307232E-05
   1.354300000E-02   9.975511295E+01  -1.488313728E+01  -9.799952682E+01   9.975489665E-05
   1.354400000E-02   9.967347425E+01  -2.748961684E+01  -9.800163395E+01   9.967325724E-05
   1.354500000E-02   9.965706984E+01  -2.988818540E+01  -9.801466935E+01   9.965685298E-05
   1.354600000E-02   9.965614763E+01  -2.988790905E+01  -9.802720384E+01   9.965593574E-05
   1.354700000E-02   9.965521833E+01  -2.988763095E+01  -9.803867532E+01   9.965500719E-05
   1.354800000E-02   9.965428777E+01  -2.988735100E+01  -9.804914102E+01   9.965407610E-05
   1.354900000E-02   9.965335100E+01  -2.988706913E+01  -9.805870361E+01   9.965313908E-05
   1.355000000E-02   9.974973267E+01  -1.491849411E+01  -9.806369568E+01   9.974951678E-05
   1.355100000E-02   9.984846033E+01  -9.981518646E-03  -9.803527571E+01   9.984824747E-05
   1.355200000E-02   9.982328152E+01  -4.188047568E+00  -9.801179457E+01   9.982307044E-05
   1.355300000E-02   9.975508117E+01  -1.488829982E+01  -9.799952361E+01   9.975486486E-05
   1.355400000E-02   9.967351843E+01  -2.748304938E+01  -9.800162577E+01   9.967330141E-05
   1.355500000E-02   9.965706948E+01  -2.988818530E+01  -9.801467452E+01   9.965685534E-05
   1.355600000E-02   9.965614797E+01  -2.988790915E+01  -9.802719930E+01   9.965593608E-05
   1.355700000E-02   9.965522503E+01  -2.988763110E+01  -9.803866922E+01   9.965500770E-05
   1.355800000E-02   9.965428899E+01  -2.988735094E+01  -9.804914323E+01   9.965407589E-05
   1.355900000E-02   9.965335064E+01  -2.988707057E+01  -9.805870727E+01   9.965313872E-05
   1.356000000E-02   9.974920755E+01  -1.499933666E+01  -9.806371176E+01   9.974899169E-05
   1.356100000E-02   9.984846592E+01  -9.981519077E-03  -9.803526210E+01   9.984824828E-05
   1.356200000E-02   9.982329348E+01  -4.186620893E+00  -9.801179493E+01   9.982308011E-05
   1.356300000E-02   9.975512538E+01  -1.488160199E+01  -9.799952578E+01   9.975490908E-05
   1.356400000E-02   9.967348667E+01  -2.748810912E+01  -9.800162478E+01   9.967326966E-05
   1.356500000E-02   9.965707229E+01  -2.988818529E+01  -9.801467029E+01   9.965685986E-05
   1.356600000E-02   9.965614761E+01  -2.988790905E+01  -9.802720269E+01   9.965593708E-05
   1.356700000E-02   9.965522467E+01  -2.988763100E+01  -9.803867361E+01   9.965500734E-05
   1.356800000E-02   9.965429554E+01  -2.988735104E+01  -9.804913945E+01   9.965407624E-05
   1.356900000E-02   9.965335877E+01  -2.988707073E+01  -9.805870218E+01   9.965313923E-05
   1.357000000E-02   9.974958888E+01  -1.494121718E+01  -9.806370020E+01   9.974936919E-05
   1.357100000E-02   9.984846674E+01  -9.981519741E-03  -9.803525135E+01   9.984824910E-05
   1.357200000E-02   9.982327912E+01  -4.189078221E+00  -9.801178647E+01   9.982306576E-05
   1.357300000E-02   9.975509359E+01  -1.488674736E+01  -9.799952257E+01   9.975487729E-05
   1.357400000E-02   9.967353085E+01  -2.748152451E+01  -9.800161927E+01   9.967331383E-05
   1.357500000E-02   9.965707725E+01  -2.988818534E+01  -9.801466772E+01   9.965686004E-05
   1.357600000E-02   9.965615574E+01  -2.988790920E+01  -9.802719599E+01   9.965593758E-05
   1.357700000E-02   9.965522590E+01  -2.988763094E+01  -9.803867604E+01   9.965500713E-05
   1.357800000E-02   9.965429517E+01  -2.988735093E+01  -9.804913725E+01   9.965407587E-05
   1.357900000E-02   9.965335841E+01  -2.988707062E+01  -9.805870441E+01   9.965313886E-05
   1.358000000E-02   9.974951496E+01  -1.495259825E+01  -9.806369865E+01   9.974929527E-05
   1.358100000E-02   9.984846560E+01  -9.981519627E-03  -9.803526154E+01   9.984824796E-05
   1.358200000E-02   9.982329909E+01  -4.185973134E+00  -9.801179594E+01   9.982308572E-05
   1.358300000E-02   9.975508460E+01  -1.488832984E+01  -9.799951633E+01   9.975486830E-05
   1.358400000E-02   9.967349909E+01  -2.748656707E+01  -9.800162323E+01   9.967328207E-05
   1.358500000E-02   9.965707506E+01  -2.988818544E+01  -9.801467226E+01   9.965685676E-05
   1.358600000E-02   9.965615334E+01  -2.988790925E+01  -9.802720302E+01   9.965594021E-05
   1.358700000E-02   9.965522400E+01  -2.988763115E+01  -9.803867373E+01   9.965501143E-05
   1.358800000E-02   9.965429271E+01  -2.988735252E+01  -9.804914532E+01   9.965407961E-05
   1.358900000E-02   9.965335559E+01  -2.988707087E+01  -9.805870788E+01   9.965314225E-05
   1.359000000E-02   9.974944129E+01  -1.496394121E+01  -9.806369709E+01   9.974922523E-05
   1.359100000E-02   9.984846642E+01  -9.981519709E-03  -9.803525079E+01   9.984824878E-05
   1.359200000E-02   9.982328474E+01  -4.188422901E+00  -9.801178749E+01   9.982307137E-05
   1.359300000E-02   9.975510602E+01  -1.488516657E+01  -9.799951849E+01   9.975488972E-05
   1.359400000E-02   9.967349391E+01  -2.748753435E+01  -9.800162388E+01   9.967327690E-05
   1.359500000E-02   9.965707739E+01  -2.988818729E+01  -9.801466285E+01   9.965686018E-05
   1.359600000E-02   9.965615588E+01  -2.988790960E+01  -9.802718790E+01   9.965593772E-05
   1.359700000E-02   9.965522604E+01  -2.988763098E+01  -9.803866669E+01   9.965501319E-05
   1.359800000E-02   9.965429532E+01  -2.988735252E+01  -9.804913426E+01   9.965407738E-05
   1.359900000E-02   9.965335855E+01  -2.988707102E+01  -9.805869678E+01   9.965314492E-05
   1.360000000E-02   9.974982262E+01  -1.490582173E+01  -9.806368553E+01   9.974960275E-05
   1.360100000E-02   9.984846528E+01  -9.981519595E-03  -9.803526287E+01   9.984824765E-05
   1.360200000E-02   9.982330471E+01  -4.185306916E+00  -9.801179391E+01   9.982309134E-05
   1.360300000E-02   9.975509704E+01  -1.488673199E+01  -9.799951529E+01   9.975488074E-05
   1.360400000E-02   9.967351151E+01  -2.748500023E+01  -9.800161901E+01   9.967329449E-05
   1.360500000E-02   9.965707703E+01  -2.988818718E+01  -9.801466802E+01   9.965685982E-05
   1.360600000E-02   9.965615552E+01  -2.988791104E+01  -9.802719272E+01   9.965593736E-05
   1.360700000E-02   9.965522638E+01  -2.988763299E+01  -9.803866254E+01   9.965501353E-05
   1.360800000E-02   9.965429512E+01  -2.988735282E+01  -9.804913648E+01   9.965408309E-05
   1.360900000E-02   9.965335819E+01  -2.988707091E+01  -9.805870044E+01   9.965314591E-05
   1.361000000E-02   9.974929750E+01  -1.498666428E+01  -9.806370161E+01   9.974907763E-05
   1.361100000E-02   9.984846896E+01  -9.981519677E-03  -9.803525213E+01   9.984825301E-05
   1.361200000E-02   9.982329035E+01  -4.187743440E+00  -9.801178545E+01   9.982307916E-05
   1.361300000E-02   9.975511845E+01  -1.488355279E+01  -9.799951745E+01   9.975490215E-05
   1.361400000E-02   9.967347975E+01  -2.749002181E+01  -9.800162297E+01   9.967326273E-05
   1.361500000E-02   9.965707753E+01  -2.988818733E+01  -9.801466083E+01   9.965686032E-05
   1.361600000E-02   9.965615532E+01  -2.988791098E+01  -9.802719538E+01   9.965594308E-05
   1.361700000E-02   9.965523223E+01  -2.988763288E+01  -9.803866693E+01   9.965501453E-05
   1.361800000E-02   9.965429689E+01  -2.988735292E+01  -9.804913269E+01   9.965408343E-05
   1.361900000E-02   9.965335870E+01  -2.988707261E+01  -9.805869535E+01   9.965314642E-05
   1.362000000E-02   9.974967502E+01  -1.492854480E+01  -9.806369005E+01   9.974945878E-05
   1.362100000E-02   9.984846782E+01  -9.981519563E-03  -9.803526231E+01   9.984825460E-05
   1.362200000E-02   9.982328629E+01  -4.188508201E+00  -9.801178077E+01   9.982307510E-05
   1.362300000E-02   9.975508666E+01  -1.488866043E+01  -9.799951425E+01   9.975487036E-05
   1.362400000E-02   9.967352392E+01  -2.748340221E+01  -9.800161251E+01   9.967330690E-05
   1.362500000E-02   9.965707717E+01  -2.988818722E+01  -9.801466122E+01   9.965686268E-05
   1.362600000E-02   9.965615566E+01  -2.988791108E+01  -9.802718941E+01   9.965594341E-05
   1.362700000E-02   9.965523273E+01  -2.988763303E+01  -9.803866083E+01   9.965501504E-05
   1.362800000E-02   9.965429668E+01  -2.988735286E+01  -9.804912871E+01   9.965408323E-05
   1.362900000E-02   9.965335833E+01  -2.988707250E+01  -9.805869758E+01   9.965314606E-05
   1.363000000E-02   9.974960148E+01  -1.493986665E+01  -9.806368849E+01   9.974938524E-05
   1.363100000E-02   9.984847341E+01  -9.981519645E-03  -9.803525156E+01   9.984825542E-05
   1.363200000E-02   9.982329825E+01  -4.187045527E+00  -9.801178647E+01   9.982308478E-05
   1.363300000E-02   9.975513087E+01  -1.488191379E+01  -9.799951337E+01   9.975491458E-05
   1.363400000E-02   9.967349216E+01  -2.748841110E+01  -9.800161646E+01   9.967327515E-05
   1.363500000E-02   9.965707998E+01  -2.988818721E+01  -9.801466177E+01   9.965686720E-05
   1.363600000E-02   9.965615530E+01  -2.988791097E+01  -9.802719422E+01   9.965594441E-05
   1.363700000E-02   9.965523237E+01  -2.988763292E+01  -9.803865901E+01   9.965501467E-05
   1.363800000E-02   9.965429703E+01  -2.988735297E+01  -9.804912350E+01   9.965408358E-05
   1.363900000E-02   9.965336433E+01  -2.988707244E+01  -9.805869341E+01   9.965314585E-05
   1.364000000E-02   9.974953124E+01  -1.495126788E+01  -9.806368694E+01   9.974931119E-05
   1.364100000E-02   9.984847423E+01  -9.981520076E-03  -9.803524081E+01   9.984825623E-05
   1.364200000E-02   9.982328389E+01  -4.189468915E+00  -9.801177802E+01   9.982307042E-05
   1.364300000E-02   9.975509909E+01  -1.488700836E+01  -9.799951016E+01   9.975488279E-05
   1.364400000E-02   9.967348697E+01  -2.748934344E+01  -9.800161711E+01   9.967326996E-05
   1.364500000E-02   9.965708016E+01  -2.988818726E+01  -9.801465635E+01   9.965686738E-05
   1.364600000E-02   9.965616200E+01  -2.988791112E+01  -9.802718132E+01   9.965594492E-05
   1.364700000E-02   9.965523359E+01  -2.988763286E+01  -9.803866002E+01   9.965501447E-05
   1.364800000E-02   9.965430287E+01  -2.988735441E+01  -9.804912750E+01   9.965408321E-05
   1.364900000E-02   9.965336610E+01  -2.988707290E+01  -9.805868995E+01   9.965314620E-05
   1.365000000E-02   9.974945701E+01  -1.496269686E+01  -9.806368921E+01   9.974923696E-05
   1.365100000E-02   9.984847309E+01  -9.981519962E-03  -9.803525290E+01   9.984825510E-05
   1.365200000E-02   9.982330387E+01  -4.186329842E+00  -9.801178443E+01   9.982309039E-05
   1.365300000E-02   9.975509010E+01  -1.488854369E+01  -9.799950696E+01   9.975487380E-05
   1.365400000E-02   9.967350458E+01  -2.748677617E+01  -9.800161492E+01   9.967328756E-05
   1.365500000E-02   9.965708458E+01  -2.988818787E+01  -9.801466151E+01   9.965686702E-05
   1.365600000E-02   9.965616307E+01  -2.988791101E+01  -9.802718614E+01   9.965594456E-05
   1.365700000E-02   9.965523393E+01  -2.988763296E+01  -9.803865587E+01   9.965501482E-05
   1.365800000E-02   9.965430337E+01  -2.988735456E+01  -9.804912193E+01   9.965408372E-05
   1.365900000E-02   9.965336590E+01  -2.988707284E+01  -9.805869197E+01   9.965314600E-05
   1.366000000E-02   9.974938364E+01  -1.497399191E+01  -9.806369146E+01   9.974916360E-05
   1.366100000E-02   9.984847391E+01  -9.981520626E-03  -9.803524216E+01   9.984825591E-05
   1.366200000E-02   9.982328951E+01  -4.188745306E+00  -9.801177598E+01   9.982307603E-05
   1.366300000E-02   9.975511152E+01  -1.488533298E+01  -9.799950912E+01   9.975489522E-05
   1.366400000E-02   9.967347282E+01  -2.749176789E+01  -9.800161621E+01   9.967325581E-05
   1.366500000E-02   9.965708508E+01  -2.988818921E+01  -9.801465433E+01   9.965686752E-05
   1.366600000E-02   9.965616287E+01  -2.988791131E+01  -9.802718880E+01   9.965594436E-05
   1.366700000E-02   9.965523357E+01  -2.988763441E+01  -9.803866026E+01   9.965502037E-05
   1.366800000E-02   9.965430301E+01  -2.988735481E+01  -9.804912594E+01   9.965408471E-05
   1.366900000E-02   9.965336624E+01  -2.988707294E+01  -9.805868852E+01   9.965314634E-05
   1.367000000E-02   9.974976115E+01  -1.491587242E+01  -9.806367990E+01   9.974954474E-05
   1.367100000E-02   9.984847277E+01  -9.981520512E-03  -9.803525234E+01   9.984825478E-05
   1.367200000E-02   9.982328544E+01  -4.189490266E+00  -9.801177130E+01   9.982307197E-05
   1.367300000E-02   9.975507973E+01  -1.489041186E+01  -9.799950592E+01   9.975486343E-05
   1.367400000E-02   9.967351700E+01  -2.748511902E+01  -9.800161069E+01   9.967329998E-05
   1.367500000E-02   9.965708472E+01  -2.988818911E+01  -9.801465949E+01   9.965686716E-05
   1.367600000E-02   9.965616321E+01  -2.988791296E+01  -9.802718426E+01   9.965594470E-05
   1.367700000E-02   9.965523408E+01  -2.988763491E+01  -9.803865416E+01   9.965502087E-05
   1.367800000E-02   9.965430281E+01  -2.988735475E+01  -9.804912195E+01   9.965408451E-05
   1.367900000E-02   9.965336588E+01  -2.988707283E+01  -9.805869075E+01   9.965315189E-05
   1.368000000E-02   9.974923605E+01  -1.499671498E+01  -9.806369218E+01   9.974901963E-05
   1.368100000E-02   9.984847359E+01  -9.981520594E-03  -9.803524159E+01   9.984825560E-05
   1.368200000E-02   9.982329512E+01  -4.188006598E+00  -9.801177700E+01   9.982308165E-05
   1.368300000E-02   9.975512394E+01  -1.488363647E+01  -9.799951037E+01   9.975490764E-05
   1.368400000E-02   9.967348524E+01  -2.749010053E+01  -9.800161466E+01   9.967326822E-05
   1.368500000E-02   9.965708522E+01  -2.988818926E+01  -9.801464754E+01   9.965686766E-05
   1.368600000E-02   9.965616301E+01  -2.988791290E+01  -9.802718549E+01   9.965594450E-05
   1.368700000E-02   9.965523371E+01  -2.988763481E+01  -9.803865854E+01   9.965502051E-05
   1.368800000E-02   9.965430315E+01  -2.988735485E+01  -9.804911817E+01   9.965409077E-05
   1.368900000E-02   9.965336639E+01  -2.988707454E+01  -9.805868566E+01   9.965315376E-05
   1.369000000E-02   9.974961737E+01  -1.493859550E+01  -9.806367679E+01   9.974939715E-05
   1.369100000E-02   9.984847604E+01  -9.981520554E-03  -9.803524690E+01   9.984825519E-05
   1.369200000E-02   9.982329106E+01  -4.188743377E+00  -9.801177461E+01   9.982307759E-05
   1.369300000E-02   9.975509216E+01  -1.488870419E+01  -9.799950717E+01   9.975487586E-05
   1.369400000E-02   9.967352942E+01  -2.748344280E+01  -9.800160419E+01   9.967331239E-05
   1.369500000E-02   9.965708486E+01  -2.988818915E+01  -9.801465270E+01   9.965686730E-05
   1.369600000E-02   9.965616335E+01  -2.988791301E+01  -9.802718095E+01   9.965594484E-05
   1.369700000E-02   9.965523351E+01  -2.988763475E+01  -9.803865477E+01   9.965502031E-05
   1.369800000E-02   9.965430279E+01  -2.988735474E+01  -9.804912075E+01   9.965409041E-05
   1.369900000E-02   9.965336602E+01  -2.988707443E+01  -9.805868312E+01   9.965315340E-05
   1.370000000E-02   9.974954352E+01  -1.494996431E+01  -9.806367905E+01   9.974932330E-05
   1.370100000E-02   9.984847613E+01  -9.981520562E-03  -9.803524579E+01   9.984825982E-05
   1.370200000E-02   9.982330074E+01  -4.187254137E+00  -9.801178030E+01   9.982308945E-05
   1.370300000E-02   9.975508317E+01  -1.489021559E+01  -9.799950092E+01   9.975486686E-05
   1.370400000E-02   9.967349766E+01  -2.748841477E+01  -9.800160815E+01   9.967328064E-05
   1.370500000E-02   9.965708450E+01  -2.988818904E+01  -9.801465785E+01   9.965686694E-05
   1.370600000E-02   9.965616299E+01  -2.988791290E+01  -9.802718576E+01   9.965595039E-05
   1.370700000E-02   9.965524006E+01  -2.988763485E+01  -9.803865063E+01   9.965502201E-05
   1.370800000E-02   9.965430472E+01  -2.988735489E+01  -9.804911518E+01   9.965409091E-05
   1.370900000E-02   9.965336582E+01  -2.988707437E+01  -9.805868514E+01   9.965315319E-05
   1.371000000E-02   9.974946977E+01  -1.496131857E+01  -9.806368131E+01   9.974925319E-05
   1.371100000E-02   9.984847695E+01  -9.981520644E-03  -9.803523218E+01   9.984826337E-05
   1.371200000E-02   9.982328638E+01  -4.189652151E+00  -9.801177185E+01   9.982307509E-05
   1.371300000E-02   9.975510459E+01  -1.488697893E+01  -9.799950308E+01   9.975488828E-05
   1.371400000E-02   9.967349248E+01  -2.748930997E+01  -9.800160880E+01   9.967327546E-05
   1.371500000E-02   9.965708500E+01  -2.988818919E+01  -9.801464783E+01   9.965686744E-05
   1.371600000E-02   9.965616349E+01  -2.988791305E+01  -9.802717906E+01   9.965595089E-05
   1.371700000E-02   9.965523986E+01  -2.988763479E+01  -9.803865305E+01   9.965502181E-05
   1.371800000E-02   9.965430436E+01  -2.988735478E+01  -9.804911918E+01   9.965409055E-05
   1.371900000E-02   9.965336617E+01  -2.988707447E+01  -9.805868169E+01   9.965315354E-05
   1.372000000E-02   9.974984729E+01  -1.490319909E+01  -9.806366975E+01   9.974963069E-05
   1.372100000E-02   9.984848057E+01  -9.981520530E-03  -9.803524713E+01   9.984826223E-05
   1.372200000E-02   9.982330865E+01  -4.186488266E+00  -9.801177827E+01   9.982309506E-05
   1.372300000E-02   9.975509560E+01  -1.488847765E+01  -9.799949989E+01   9.975487930E-05
   1.372400000E-02   9.967351007E+01  -2.748671118E+01  -9.800160660E+01   9.967329305E-05
   1.372500000E-02   9.965708464E+01  -2.988818908E+01  -9.801465299E+01   9.965686980E-05
   1.372600000E-02   9.965616313E+01  -2.988791294E+01  -9.802717768E+01   9.965595053E-05
   1.372700000E-02   9.965524020E+01  -2.988763489E+01  -9.803864748E+01   9.965502215E-05
   1.372800000E-02   9.965430415E+01  -2.988735472E+01  -9.804912140E+01   9.965409035E-05
   1.372900000E-02   9.965336580E+01  -2.988707436E+01  -9.805868535E+01   9.965315317E-05
   1.373000000E-02   9.974932217E+01  -1.498404165E+01  -9.806368583E+01   9.974910560E-05
   1.373100000E-02   9.984848139E+01  -9.981520612E-03  -9.803523638E+01   9.984826305E-05
   1.373200000E-02   9.982329428E+01  -4.188880669E+00  -9.801176981E+01   9.982308070E-05
   1.373300000E-02   9.975511701E+01  -1.488523503E+01  -9.799950205E+01   9.975490071E-05
   1.373400000E-02   9.967347831E+01  -2.749166980E+01  -9.800161056E+01   9.967326130E-05
   1.373500000E-02   9.965708514E+01  -2.988818923E+01  -9.801464581E+01   9.965687486E-05
   1.373600000E-02   9.965616293E+01  -2.988791288E+01  -9.802718034E+01   9.965595169E-05
   1.373700000E-02   9.965523984E+01  -2.988763478E+01  -9.803865187E+01   9.965502179E-05
   1.373800000E-02   9.965430450E+01  -2.988735638E+01  -9.804911762E+01   9.965409069E-05
   1.373900000E-02   9.965337251E+01  -2.988707487E+01  -9.805868025E+01   9.965315368E-05
   1.374000000E-02   9.974970350E+01  -1.492592312E+01  -9.806367427E+01   9.974948310E-05
   1.374100000E-02   9.984848025E+01  -9.981520498E-03  -9.803524657E+01   9.984826192E-05
   1.374200000E-02   9.982329022E+01  -4.189602632E+00  -9.801176513E+01   9.982307664E-05
   1.374300000E-02   9.975508523E+01  -1.489028282E+01  -9.799949884E+01   9.975486893E-05
   1.374400000E-02   9.967352249E+01  -2.748499109E+01  -9.800160238E+01   9.967330547E-05
   1.374500000E-02   9.965708763E+01  -2.988818984E+01  -9.801465097E+01   9.965687450E-05
   1.374600000E-02   9.965616327E+01  -2.988791298E+01  -9.802717579E+01   9.965595203E-05
   1.374700000E-02   9.965524034E+01  -2.988763493E+01  -9.803864577E+01   9.965502230E-05
   1.374800000E-02   9.965431050E+01  -2.988735632E+01  -9.804911983E+01   9.965409049E-05
   1.374900000E-02   9.965337357E+01  -2.988707476E+01  -9.805868391E+01   9.965315332E-05
   1.375000000E-02   9.974963004E+01  -1.493723271E+01  -9.806367652E+01   9.974940964E-05
   1.375100000E-02   9.984848107E+01  -9.981520580E-03  -9.803523582E+01   9.984826273E-05
   1.375200000E-02   9.982329990E+01  -4.188097782E+00  -9.801177083E+01   9.982308631E-05
   1.375300000E-02   9.975512944E+01  -1.488347558E+01  -9.799950330E+01   9.975491314E-05
   1.375400000E-02   9.967349073E+01  -2.748994208E+01  -9.800160634E+01   9.967327371E-05
   1.375500000E-02   9.965708759E+01  -2.988818983E+01  -9.801465152E+01   9.965687446E-05
   1.375600000E-02   9.965616912E+01  -2.988791287E+01  -9.802718061E+01   9.965595167E-05
   1.375700000E-02   9.965524140E+01  -2.988763482E+01  -9.803865016E+01   9.965502193E-05
   1.375800000E-02   9.965431084E+01  -2.988735642E+01  -9.804910985E+01   9.965409084E-05
   1.375900000E-02   9.965337408E+01  -2.988707491E+01  -9.805867739E+01   9.965315382E-05
   1.376000000E-02   9.974955591E+01  -1.494864620E+01  -9.806367498E+01   9.974933551E-05
   1.376100000E-02   9.984848189E+01  -9.981520662E-03  -9.803522507E+01   9.984826355E-05
   1.376200000E-02   9.982328553E+01  -4.190481970E+00  -9.801176238E+01   9.982307195E-05
   1.376300000E-02   9.975509766E+01  -1.488851574E+01  -9.799950010E+01   9.975488135E-05
   1.376400000E-02   9.967353491E+01  -2.748325507E+01  -9.800160083E+01   9.967331789E-05
   1.376500000E-02   9.965709255E+01  -2.988819107E+01  -9.801464895E+01   9.965687464E-05
   1.376600000E-02   9.965617104E+01  -2.988791338E+01  -9.802717391E+01   9.965595217E-05
   1.376700000E-02   9.965524120E+01  -2.988763632E+01  -9.803865259E+01   9.965502173E-05
   1.376800000E-02   9.965431048E+01  -2.988735667E+01  -9.804911385E+01   9.965409047E-05
   1.376900000E-02   9.965337371E+01  -2.988707480E+01  -9.805868106E+01   9.965315346E-05
   1.377000000E-02   9.974948176E+01  -1.496006197E+01  -9.806367343E+01   9.974926136E-05
   1.377100000E-02   9.984848075E+01  -9.981520897E-03  -9.803524002E+01   9.984826241E-05
   1.377200000E-02   9.982330551E+01  -4.187304499E+00  -9.801177413E+01   9.982309193E-05
   1.377300000E-02   9.975508867E+01  -1.488999772E+01  -9.799949919E+01   9.975487236E-05
   1.377400000E-02   9.967350315E+01  -2.748820034E+01  -9.800160479E+01   9.967328613E-05
   1.377500000E-02   9.965709220E+01  -2.988819097E+01  -9.801465412E+01   9.965687428E-05
   1.377600000E-02   9.965617068E+01  -2.988791482E+01  -9.802717873E+01   9.965595182E-05
   1.377700000E-02   9.965524155E+01  -2.988763677E+01  -9.803864844E+01   9.965502208E-05
   1.377800000E-02   9.965431098E+01  -2.988735682E+01  -9.804910828E+01   9.965409098E-05
   1.377900000E-02   9.965337351E+01  -2.988707474E+01  -9.805868308E+01   9.965315326E-05
   1.378000000E-02   9.974940831E+01  -1.497136927E+01  -9.806367568E+01   9.974918792E-05
   1.378100000E-02   9.984848157E+01  -9.981520979E-03  -9.803522927E+01   9.984826323E-05
   1.378200000E-02   9.982329115E+01  -4.189684065E+00  -9.801176568E+01   9.982307757E-05
   1.378300000E-02   9.975511008E+01  -1.488673516E+01  -9.799950135E+01   9.975489378E-05
   1.378400000E-02   9.967347139E+01  -2.749314112E+01  -9.800160876E+01   9.967325437E-05
   1.378500000E-02   9.965709269E+01  -2.988819112E+01  -9.801464216E+01   9.965687478E-05
   1.378600000E-02   9.965617048E+01  -2.988791476E+01  -9.802717997E+01   9.965595162E-05
   1.378700000E-02   9.965524118E+01  -2.988763667E+01  -9.803864662E+01   9.965502763E-05
   1.378800000E-02   9.965431062E+01  -2.988735671E+01  -9.804911086E+01   9.965409197E-05
   1.378900000E-02   9.965337386E+01  -2.988707485E+01  -9.805867342E+01   9.965315360E-05
   1.379000000E-02   9.974978582E+01  -1.491324979E+01  -9.806366412E+01   9.974956906E-05
   1.379100000E-02   9.984848043E+01  -9.981520865E-03  -9.803524136E+01   9.984826209E-05
   1.379200000E-02   9.982328708E+01  -4.190393869E+00  -9.801176329E+01   9.982307350E-05
   1.379300000E-02   9.975507830E+01  -1.489176416E+01  -9.799949815E+01   9.975486199E-05
   1.379400000E-02   9.967351556E+01  -2.748644525E+01  -9.800159829E+01   9.967329855E-05
   1.379500000E-02   9.965709233E+01  -2.988819101E+01  -9.801464732E+01   9.965687442E-05
   1.379600000E-02   9.965617082E+01  -2.988791487E+01  -9.802717542E+01   9.965595196E-05
   1.379700000E-02   9.965524169E+01  -2.988763682E+01  -9.803864052E+01   9.965502813E-05
   1.379800000E-02   9.965431042E+01  -2.988735665E+01  -9.804911308E+01   9.965409177E-05
   1.379900000E-02   9.965337349E+01  -2.988707629E+01  -9.805867708E+01   9.965315324E-05
   1.380000000E-02   9.974926072E+01  -1.499409235E+01  -9.806368020E+01   9.974904395E-05
   1.380100000E-02   9.984848125E+01  -9.981520947E-03  -9.803523061E+01   9.984826291E-05
   1.380200000E-02   9.982329676E+01  -4.188876767E+00  -9.801176898E+01   9.982308318E-05
   1.380300000E-02   9.975512251E+01  -1.488494124E+01  -9.799949726E+01   9.975490621E-05
   1.380400000E-02   9.967348380E+01  -2.749138031E+01  -9.800160225E+01   9.967326679E-05
   1.380500000E-02   9.965709283E+01  -2.988819116E+01  -9.801464014E+01   9.965687492E-05
   1.380600000E-02   9.965617063E+01  -2.988791481E+01  -9.802717808E+01   9.965595176E-05
   1.380700000E-02   9.965524133E+01  -2.988763671E+01  -9.803864491E+01   9.965502777E-05
   1.380800000E-02   9.965431076E+01  -2.988735675E+01  -9.804910929E+01   9.965409212E-05
   1.380900000E-02   9.965337400E+01  -2.988707644E+01  -9.805867199E+01   9.965315374E-05
   1.381000000E-02   9.974963822E+01  -1.493597286E+01  -9.806366864E+01   9.974942146E-05
   1.381100000E-02   9.984848085E+01  -9.981520907E-03  -9.803523592E+01   9.984826251E-05
   1.381200000E-02   9.982329270E+01  -4.189581724E+00  -9.801176660E+01   9.982307912E-05
   1.381300000E-02   9.975509072E+01  -1.488996451E+01  -9.799949406E+01   9.975487442E-05
   1.381400000E-02   9.967352798E+01  -2.748467681E+01  -9.800159674E+01   9.967331096E-05
   1.381500000E-02   9.965709247E+01  -2.988819105E+01  -9.801464530E+01   9.965687456E-05
   1.381600000E-02   9.965617096E+01  -2.988791491E+01  -9.802717353E+01   9.965595210E-05
   1.381700000E-02   9.965524113E+01  -2.988763665E+01  -9.803864734E+01   9.965502757E-05
   1.381800000E-02   9.965431040E+01  -2.988735664E+01  -9.804911330E+01   9.965409175E-05
   1.381900000E-02   9.965337364E+01  -2.988707633E+01  -9.805867565E+01   9.965315929E-05
   1.382000000E-02   9.974956827E+01  -1.494732941E+01  -9.806367090E+01   9.974934770E-05
   1.382100000E-02   9.984848093E+01  -9.981521497E-03  -9.803523481E+01   9.984826259E-05
   1.382200000E-02   9.982330238E+01  -4.188061084E+00  -9.801176695E+01   9.982308880E-05
   1.382300000E-02   9.975508173E+01  -1.489143211E+01  -9.799949086E+01   9.975486543E-05
   1.382400000E-02   9.967349622E+01  -2.748960681E+01  -9.800160070E+01   9.967327920E-05
   1.382500000E-02   9.965709212E+01  -2.988819094E+01  -9.801464761E+01   9.965687420E-05
   1.382600000E-02   9.965617061E+01  -2.988791480E+01  -9.802717215E+01   9.965595174E-05
   1.382700000E-02   9.965524147E+01  -2.988763675E+01  -9.803864177E+01   9.965502791E-05
   1.382800000E-02   9.965431091E+01  -2.988735679E+01  -9.804910773E+01   9.965409817E-05
   1.382900000E-02   9.965337343E+01  -2.988707627E+01  -9.805867768E+01   9.965316045E-05
   1.383000000E-02   9.974949444E+01  -1.495869594E+01  -9.806367316E+01   9.974927387E-05
   1.383100000E-02   9.984848461E+01  -9.981521579E-03  -9.803522407E+01   9.984826341E-05
   1.383200000E-02   9.982328802E+01  -4.190430447E+00  -9.801175850E+01   9.982307444E-05
[...]
   2.478400000E-02   1.001573226E+02  -3.003821577E+01  -9.724276891E+01   4.633592506E+01
   2.478500000E-02   1.001593950E+02  -3.003883741E+01  -9.723888419E+01   4.632623150E+01
   2.478600000E-02   1.001614644E+02  -3.003945773E+01  -9.723499642E+01   4.631669198E+01
   2.478700000E-02   1.001635395E+02  -3.004007961E+01  -9.723110664E+01   4.630729394E+01
   2.478800000E-02   1.001656100E+02  -3.004070027E+01  -9.722721670E+01   4.629805834E+01
   2.478900000E-02   1.001676771E+02  -3.004132001E+01  -9.722333198E+01   4.628898160E+01
   2.479000000E-02   1.001697461E+02  -3.004193963E+01  -9.721944493E+01   4.628005177E+01
   2.479100000E-02   1.001718112E+02  -3.004256157E+01  -9.721556070E+01   4.627129221E+01
   2.479200000E-02   1.001738783E+02  -3.004318113E+01  -9.721167707E+01   4.626268976E+01
   2.479300000E-02   1.001759454E+02  -3.004380087E+01  -9.720778930E+01   4.625423453E+01
   2.479400000E-02   1.001780124E+02  -3.004442061E+01  -9.720390458E+01   4.624593447E+01
   2.479500000E-02   1.001800768E+02  -3.004503982E+01  -9.720001709E+01   4.623778019E+01
   2.479600000E-02   1.001821428E+02  -3.004565934E+01  -9.719613249E+01   4.622979123E+01
   2.479700000E-02   1.001842098E+02  -3.004627907E+01  -9.719225007E+01   4.622196160E+01
   2.479800000E-02   1.001862716E+02  -3.004689748E+01  -9.718836764E+01   4.621428715E+01
   2.479900000E-02   1.001883364E+02  -3.004751665E+01  -9.718448521E+01   4.620676903E+01
   2.480000000E-02   1.001903996E+02  -3.004813494E+01  -9.718060217E+01   4.619939072E+01
   2.480100000E-02   1.001924581E+02  -3.004875320E+01  -9.717672632E+01   4.619220223E+01
   2.480200000E-02   1.001945197E+02  -3.004937152E+01  -9.717284049E+01   4.618515112E+01
   2.480300000E-02   1.001965802E+02  -3.004998970E+01  -9.716896124E+01   4.617825468E+01
   2.480400000E-02   1.001986397E+02  -3.005060753E+01  -9.716508109E+01   4.617151849E+01
   2.480500000E-02   1.002006991E+02  -3.005122403E+01  -9.716120401E+01   4.616493862E+01
   2.480600000E-02   1.002027586E+02  -3.005184129E+01  -9.715732921E+01   4.615851241E+01
   2.480700000E-02   1.002048127E+02  -3.005245779E+01  -9.715345441E+01   4.615224405E+01
   2.480800000E-02   1.002068698E+02  -3.005307505E+01  -9.714957961E+01   4.614613050E+01
   2.480900000E-02   1.002089239E+02  -3.005369155E+01  -9.714570481E+01   4.614016946E+01
   2.481000000E-02   1.002109788E+02  -3.005430678E+01  -9.714182788E+01   4.613434786E+01
   2.481100000E-02   1.002130311E+02  -3.005492386E+01  -9.713795609E+01   4.612870522E+01
   2.481200000E-02   1.002150832E+02  -3.005553913E+01  -9.713408081E+01   4.612321187E+01
   2.481300000E-02   1.002171350E+02  -3.005615449E+01  -9.713021136E+01   4.611786613E+01
   2.481400000E-02   1.002191868E+02  -3.005676908E+01  -9.712634418E+01   4.611267443E+01
   2.481500000E-02   1.002212386E+02  -3.005738443E+01  -9.712247701E+01   4.610763639E+01
   2.481600000E-02   1.002232851E+02  -3.005799902E+01  -9.711860984E+01   4.610274819E+01
   2.481700000E-02   1.002253346E+02  -3.005861304E+01  -9.711474266E+01   4.609801404E+01
   2.481800000E-02   1.002273838E+02  -3.005922786E+01  -9.711087579E+01   4.609342228E+01
   2.481900000E-02   1.002294291E+02  -3.005984222E+01  -9.710700874E+01   4.608898442E+01
   2.482000000E-02   1.002314760E+02  -3.006045441E+01  -9.710314916E+01   4.608468982E+01
   2.482100000E-02   1.002335192E+02  -3.006106704E+01  -9.709928686E+01   4.608056140E+01
   2.482200000E-02   1.002355617E+02  -3.006168046E+01  -9.709542782E+01   4.607657789E+01
   2.482300000E-02   1.002376059E+02  -3.006229315E+01  -9.709156827E+01   4.607273852E+01
   2.482400000E-02   1.002396447E+02  -3.006290526E+01  -9.708771406E+01   4.606904517E+01
   2.482500000E-02   1.002416866E+02  -3.006351737E+01  -9.708386215E+01   4.606549672E+01
   2.482600000E-02   1.002437281E+02  -3.006412895E+01  -9.707999986E+01   4.606208877E+01
   2.482700000E-02   1.002457658E+02  -3.006474083E+01  -9.707614351E+01   4.605882849E+01
   2.482800000E-02   1.002478024E+02  -3.006535160E+01  -9.707229693E+01   4.605571230E+01
   2.482900000E-02   1.002498389E+02  -3.006596181E+01  -9.706844730E+01   4.605273986E+01
   2.483000000E-02   1.002518739E+02  -3.006657247E+01  -9.706460013E+01   4.604989498E+01
   2.483100000E-02   1.002539067E+02  -3.006718120E+01  -9.706075478E+01   4.604721898E+01
   2.483200000E-02   1.002559356E+02  -3.006779052E+01  -9.705691214E+01   4.604467356E+01
   2.483300000E-02   1.002579726E+02  -3.006840018E+01  -9.705306283E+01   4.604225966E+01
   2.483400000E-02   1.002600049E+02  -3.006901015E+01  -9.704921640E+01   4.603998620E+01
   2.483500000E-02   1.002620338E+02  -3.006961902E+01  -9.704537745E+01   4.603785132E+01
   2.483600000E-02   1.002640574E+02  -3.007022732E+01  -9.704154079E+01   4.603585370E+01
   2.483700000E-02   1.002660841E+02  -3.007083428E+01  -9.703770412E+01   4.603399068E+01
   2.483800000E-02   1.002681130E+02  -3.007144201E+01  -9.703386746E+01   4.603226110E+01
   2.483900000E-02   1.002701366E+02  -3.007204897E+01  -9.703003613E+01   4.603066498E+01
   2.484000000E-02   1.002721594E+02  -3.007265658E+01  -9.702620349E+01   4.602919018E+01
   2.484100000E-02   1.002741821E+02  -3.007326292E+01  -9.702237082E+01   4.602786779E+01
   2.484200000E-02   1.002762043E+02  -3.007386928E+01  -9.701854190E+01   4.602666981E+01
   2.484300000E-02   1.002782256E+02  -3.007447433E+01  -9.701471286E+01   4.602559477E+01
   2.484400000E-02   1.002802415E+02  -3.007508015E+01  -9.701088917E+01   4.602464822E+01
   2.484500000E-02   1.002822606E+02  -3.007568521E+01  -9.700706776E+01   4.602382864E+01
   2.484600000E-02   1.002842765E+02  -3.007628969E+01  -9.700324635E+01   4.602313488E+01
   2.484700000E-02   1.002862902E+02  -3.007689418E+01  -9.699942494E+01   4.602256428E+01
   2.484800000E-02   1.002883039E+02  -3.007749733E+01  -9.699560887E+01   4.602211836E+01
   2.484900000E-02   1.002903202E+02  -3.007810203E+01  -9.699179011E+01   4.602179255E+01
   2.485000000E-02   1.002923285E+02  -3.007870502E+01  -9.698797492E+01   4.602157779E+01
   2.485100000E-02   1.002943407E+02  -3.007930769E+01  -9.698416679E+01   4.602150346E+01
   2.485200000E-02   1.002963494E+02  -3.007991067E+01  -9.698035427E+01   4.602154007E+01
   2.485300000E-02   1.002983554E+02  -3.008051191E+01  -9.697654583E+01   4.602168880E+01
   2.485400000E-02   1.003003615E+02  -3.008111391E+01  -9.697273968E+01   4.602195459E+01
   2.485500000E-02   1.003023675E+02  -3.008171516E+01  -9.696893886E+01   4.602233590E+01
   2.485600000E-02   1.003043682E+02  -3.008231583E+01  -9.696513500E+01   4.602282894E+01
   2.485700000E-02   1.003063746E+02  -3.008291728E+01  -9.696132923E+01   4.602343337E+01
   2.485800000E-02   1.003083764E+02  -3.008351829E+01  -9.695752858E+01   4.602414812E+01
   2.485900000E-02   1.003103748E+02  -3.008411762E+01  -9.695373540E+01   4.602497308E+01
   2.486000000E-02   1.003123736E+02  -3.008471570E+01  -9.694994062E+01   4.602589583E+01
   2.486100000E-02   1.003143711E+02  -3.008531546E+01  -9.694615083E+01   4.602694272E+01
   2.486200000E-02   1.003163648E+02  -3.008591391E+01  -9.694236271E+01   4.602808928E+01
   2.486300000E-02   1.003183609E+02  -3.008651268E+01  -9.693857181E+01   4.602933861E+01
   2.486400000E-02   1.003203566E+02  -3.008711088E+01  -9.693478131E+01   4.603069117E+01
   2.486500000E-02   1.003223485E+02  -3.008770807E+01  -9.693099593E+01   4.603214201E+01
   2.486600000E-02   1.003243393E+02  -3.008830493E+01  -9.692721266E+01   4.603369390E+01
   2.486700000E-02   1.003263301E+02  -3.008890179E+01  -9.692343473E+01   4.603534338E+01
   2.486800000E-02   1.003283155E+02  -3.008949864E+01  -9.691965909E+01   4.603708819E+01
   2.486900000E-02   1.003303040E+02  -3.009009417E+01  -9.691588344E+01   4.603893100E+01
   2.487000000E-02   1.003322910E+02  -3.009068975E+01  -9.691210499E+01   4.604085952E+01
   2.487100000E-02   1.003342732E+02  -3.009128466E+01  -9.690833586E+01   4.604289370E+01
   2.487200000E-02   1.003362584E+02  -3.009187979E+01  -9.690456456E+01   4.604501812E+01
   2.487300000E-02   1.003382427E+02  -3.009247507E+01  -9.690079444E+01   4.604722794E+01
   2.487400000E-02   1.003402205E+02  -3.009306869E+01  -9.689702643E+01   4.604952693E+01
   2.487500000E-02   1.003422014E+02  -3.009366173E+01  -9.689326376E+01   4.605191209E+01
   2.487600000E-02   1.003441792E+02  -3.009425477E+01  -9.688950337E+01   4.605438380E+01
   2.487700000E-02   1.003461547E+02  -3.009484782E+01  -9.688574832E+01   4.605693787E+01
   2.487800000E-02   1.003481303E+02  -3.009543952E+01  -9.688199022E+01   4.605957467E+01
   2.487900000E-02   1.003501005E+02  -3.009603199E+01  -9.687823517E+01   4.606229270E+01
   2.488000000E-02   1.003520767E+02  -3.009662414E+01  -9.687448266E+01   4.606508716E+01
   2.488100000E-02   1.003540479E+02  -3.009721569E+01  -9.687073015E+01   4.606797143E+01
   2.488200000E-02   1.003560208E+02  -3.009780708E+01  -9.686697753E+01   4.607093007E+01
   2.488300000E-02   1.003579910E+02  -3.009839688E+01  -9.686323011E+01   4.607395937E+01
   2.488400000E-02   1.003599536E+02  -3.009898611E+01  -9.685948498E+01   4.607706378E+01
   2.488500000E-02   1.003619192E+02  -3.009957667E+01  -9.685574518E+01   4.608024178E+01
   2.488600000E-02   1.003638871E+02  -3.010016647E+01  -9.685200768E+01   4.608348956E+01
   2.488700000E-02   1.003658497E+02  -3.010075437E+01  -9.684827017E+01   4.608680597E+01
   2.488800000E-02   1.003678126E+02  -3.010134379E+01  -9.684452779E+01   4.609019812E+01
   2.488900000E-02   1.003697739E+02  -3.010193201E+01  -9.684079355E+01   4.609365230E+01
   2.489000000E-02   1.003717346E+02  -3.010251999E+01  -9.683706665E+01   4.609716415E+01
   2.489100000E-02   1.003736939E+02  -3.010310711E+01  -9.683333218E+01   4.610075507E+01
   2.489200000E-02   1.003756494E+02  -3.010369398E+01  -9.682960925E+01   4.610439955E+01
   2.489300000E-02   1.003776021E+02  -3.010427997E+01  -9.682588167E+01   4.610810614E+01
   2.489400000E-02   1.003795601E+02  -3.010486672E+01  -9.682215712E+01   4.611187222E+01
   2.489500000E-02   1.003815150E+02  -3.010545271E+01  -9.681844021E+01   4.611569548E+01
   2.489600000E-02   1.003834702E+02  -3.010603888E+01  -9.681471540E+01   4.611958369E+01
   2.489700000E-02   1.003854186E+02  -3.010662329E+01  -9.681099642E+01   4.612352210E+01
   2.489800000E-02   1.003873690E+02  -3.010720813E+01  -9.680728179E+01   4.612751324E+01
   2.489900000E-02   1.003893163E+02  -3.010779221E+01  -9.680357251E+01   4.613155623E+01
   2.490000000E-02   1.003912628E+02  -3.010837673E+01  -9.679986046E+01   4.613565034E+01
   2.490100000E-02   1.003932069E+02  -3.010895997E+01  -9.679615043E+01   4.613979684E+01
   2.490200000E-02   1.003951514E+02  -3.010954274E+01  -9.679244923E+01   4.614399024E+01
   2.490300000E-02   1.003970990E+02  -3.011012701E+01  -9.678873970E+01   4.614823705E+01
   2.490400000E-02   1.003990398E+02  -3.011070951E+01  -9.678503598E+01   4.615252500E+01
   2.490500000E-02   1.004009825E+02  -3.011129111E+01  -9.678133661E+01   4.615685519E+01
   2.490600000E-02   1.004029222E+02  -3.011187271E+01  -9.677763725E+01   4.616122846E+01
   2.490700000E-02   1.004048596E+02  -3.011245431E+01  -9.677394322E+01   4.616564367E+01
   2.490800000E-02   1.004067970E+02  -3.011303458E+01  -9.677025148E+01   4.617009816E+01
   2.490900000E-02   1.004087344E+02  -3.011361561E+01  -9.676655974E+01   4.617459344E+01
   2.491000000E-02   1.004106671E+02  -3.011419573E+01  -9.676286754E+01   4.617912413E+01
   2.491100000E-02   1.004126049E+02  -3.011477655E+01  -9.675917799E+01   4.618369672E+01
   2.491200000E-02   1.004145372E+02  -3.011535634E+01  -9.675549062E+01   4.618830332E+01
   2.491300000E-02   1.004164670E+02  -3.011593470E+01  -9.675180651E+01   4.619293936E+01
   2.491400000E-02   1.004183968E+02  -3.011651383E+01  -9.674812774E+01   4.619760591E+01
   2.491500000E-02   1.004203265E+02  -3.011709219E+01  -9.674444591E+01   4.620230563E+01
   2.491600000E-02   1.004222510E+02  -3.011766997E+01  -9.674076714E+01   4.620703433E+01
   2.491700000E-02   1.004241785E+02  -3.011824776E+01  -9.673709599E+01   4.621178971E+01
   2.491800000E-02   1.004261029E+02  -3.011882555E+01  -9.673342180E+01   4.621657446E+01
   2.491900000E-02   1.004280275E+02  -3.011940276E+01  -9.672974586E+01   4.622139066E+01
   2.492000000E-02   1.004299512E+02  -3.011997999E+01  -9.672607716E+01   4.622622032E+01
   2.492100000E-02   1.004318738E+02  -3.012055622E+01  -9.672241298E+01   4.623107843E+01
   2.492200000E-02   1.004337951E+02  -3.012113263E+01  -9.671874487E+01   4.623596049E+01
   2.492300000E-02   1.004357119E+02  -3.012170851E+01  -9.671508135E+01   4.624085928E+01
   2.492400000E-02   1.004376317E+02  -3.012228305E+01  -9.671142012E+01   4.624577715E+01
   2.492500000E-02   1.004395485E+02  -3.012285836E+01  -9.670775890E+01   4.625071407E+01
   2.492600000E-02   1.004414630E+02  -3.012343291E+01  -9.670410300E+01   4.625566740E+01
   2.492700000E-02   1.004433801E+02  -3.012400763E+01  -9.670044463E+01   4.626064246E+01
   2.492800000E-02   1.004452956E+02  -3.012458193E+01  -9.669678899E+01   4.626562909E+01
   2.492900000E-02   1.004472102E+02  -3.012515590E+01  -9.669313539E+01   4.627062553E+01
   2.493000000E-02   1.004491190E+02  -3.012572843E+01  -9.668948475E+01   4.627563134E+01
   2.493100000E-02   1.004510315E+02  -3.012630196E+01  -9.668583899E+01   4.628065355E+01
   2.493200000E-02   1.004529408E+02  -3.012687458E+01  -9.668219518E+01   4.628568347E+01
   2.493300000E-02   1.004548476E+02  -3.012744665E+01  -9.667854921E+01   4.629072300E+01
   2.493400000E-02   1.004567570E+02  -3.012801946E+01  -9.667489848E+01   4.629577406E+01
   2.493500000E-02   1.004586650E+02  -3.012859185E+01  -9.667125581E+01   4.630083053E+01
   2.493600000E-02   1.004605719E+02  -3.012916258E+01  -9.666761747E+01   4.630588760E+01
   2.493700000E-02   1.004624734E+02  -3.012973407E+01  -9.666397912E+01   4.631095001E+01
   2.493800000E-02   1.004643780E+02  -3.013030481E+01  -9.666034611E+01   4.631601471E+01
   2.493900000E-02   1.004662796E+02  -3.013087497E+01  -9.665671539E+01   4.632108208E+01
   2.494000000E-02   1.004681818E+02  -3.013144498E+01  -9.665307968E+01   4.632615323E+01
   2.494100000E-02   1.004700792E+02  -3.013201559E+01  -9.664945351E+01   4.633121700E+01
   2.494200000E-02   1.004719798E+02  -3.013258486E+01  -9.664581850E+01   4.633629042E+01
   2.494300000E-02   1.004738802E+02  -3.013315476E+01  -9.664219110E+01   4.634135909E+01
   2.494400000E-02   1.004757794E+02  -3.013372359E+01  -9.663856801E+01   4.634641845E+01
   2.494500000E-02   1.004776733E+02  -3.013429184E+01  -9.663494492E+01   4.635147552E+01
   2.494600000E-02   1.004795703E+02  -3.013486009E+01  -9.663132183E+01   4.635652726E+01
   2.494700000E-02   1.004814642E+02  -3.013542835E+01  -9.662770407E+01   4.636157403E+01
   2.494800000E-02   1.004833559E+02  -3.013599527E+01  -9.662408327E+01   4.636661433E+01
   2.494900000E-02   1.004852475E+02  -3.013656295E+01  -9.662046551E+01   4.637164433E+01
   2.495000000E-02   1.004871398E+02  -3.013713047E+01  -9.661684966E+01   4.637667044E+01
   2.495100000E-02   1.004890270E+02  -3.013769746E+01  -9.661323643E+01   4.638168431E+01
   2.495200000E-02   1.004909183E+02  -3.013826495E+01  -9.660962536E+01   4.638668531E+01
   2.495300000E-02   1.004928099E+02  -3.013883053E+01  -9.660601218E+01   4.639167336E+01
   2.495400000E-02   1.004946962E+02  -3.013939631E+01  -9.660240206E+01   4.639664996E+01
   2.495500000E-02   1.004965802E+02  -3.013996265E+01  -9.659879956E+01   4.640161246E+01
   2.495600000E-02   1.004984643E+02  -3.014052767E+01  -9.659519402E+01   4.640656237E+01
   2.495700000E-02   1.005003483E+02  -3.014109344E+01  -9.659159151E+01   4.641149551E+01
   2.495800000E-02   1.005022347E+02  -3.014165919E+01  -9.658798661E+01   4.641641866E+01
   2.495900000E-02   1.005041198E+02  -3.014222394E+01  -9.658438439E+01   4.642132019E+01
   2.496000000E-02   1.005060004E+02  -3.014278885E+01  -9.658078409E+01   4.642620245E+01
   2.496100000E-02   1.005078824E+02  -3.014335284E+01  -9.657718411E+01   4.643106632E+01
   2.496200000E-02   1.005097642E+02  -3.014391593E+01  -9.657358910E+01   4.643590866E+01
   2.496300000E-02   1.005116429E+02  -3.014447979E+01  -9.656999652E+01   4.644073234E+01
   2.496400000E-02   1.005135192E+02  -3.014504290E+01  -9.656640394E+01   4.644553581E+01
   2.496500000E-02   1.005154034E+02  -3.014560750E+01  -9.656280667E+01   4.645032110E+01
   2.496600000E-02   1.005172831E+02  -3.014617092E+01  -9.655921743E+01   4.645508145E+01
   2.496700000E-02   1.005191542E+02  -3.014673345E+01  -9.655562713E+01   4.645981739E+01
   2.496800000E-02   1.005210282E+02  -3.014729465E+01  -9.655203989E+01   4.646453045E+01
   2.496900000E-02   1.005229046E+02  -3.014785661E+01  -9.654845494E+01   4.646921797E+01
   2.497000000E-02   1.005247771E+02  -3.014841956E+01  -9.654486731E+01   4.647388227E+01
   2.497100000E-02   1.005266526E+02  -3.014898064E+01  -9.654128403E+01   4.647851480E+01
   2.497200000E-02   1.005285208E+02  -3.014954230E+01  -9.653770541E+01   4.648312305E+01
   2.497300000E-02   1.005303973E+02  -3.015010423E+01  -9.653412342E+01   4.648771092E+01
   2.497400000E-02   1.005322694E+02  -3.015066517E+01  -9.653053875E+01   4.649226749E+01
   2.497500000E-02   1.005341382E+02  -3.015122580E+01  -9.652695914E+01   4.649679215E+01
   2.497600000E-02   1.005360069E+02  -3.015178642E+01  -9.652338716E+01   4.650128897E+01
   2.497700000E-02   1.005378757E+02  -3.015234705E+01  -9.651981212E+01   4.650575644E+01
   2.497800000E-02   1.005397391E+02  -3.015290634E+01  -9.651623480E+01   4.651019340E+01
   2.497900000E-02   1.005416055E+02  -3.015346639E+01  -9.651266280E+01   4.651459986E+01
   2.498000000E-02   1.005434757E+02  -3.015402591E+01  -9.650909121E+01   4.651897716E+01
   2.498100000E-02   1.005453381E+02  -3.015458549E+01  -9.650551997E+01   4.652332218E+01
   2.498200000E-02   1.005472023E+02  -3.015514416E+01  -9.650194706E+01   4.652763126E+01
   2.498300000E-02   1.005490688E+02  -3.015570422E+01  -9.649838270E+01   4.653190802E+01
   2.498400000E-02   1.005509322E+02  -3.015626217E+01  -9.649481529E+01   4.653615161E+01
   2.498500000E-02   1.005527933E+02  -3.015682032E+01  -9.649125093E+01   4.654036089E+01
   2.498600000E-02   1.005546544E+02  -3.015737904E+01  -9.648768886E+01   4.654453585E+01
   2.498700000E-02   1.005565156E+02  -3.015793776E+01  -9.648412679E+01   4.654867649E+01
   2.498800000E-02   1.005583767E+02  -3.015849514E+01  -9.648056472E+01   4.655278281E+01
   2.498900000E-02   1.005602402E+02  -3.015905401E+01  -9.647699801E+01   4.655685745E+01
   2.499000000E-02   1.005620960E+02  -3.015961084E+01  -9.647343767E+01   4.656089469E+01
   2.499100000E-02   1.005639557E+02  -3.016016800E+01  -9.646987928E+01   4.656488631E+01
   2.499200000E-02   1.005658117E+02  -3.016072533E+01  -9.646632277E+01   4.656884525E+01
   2.499300000E-02   1.005676705E+02  -3.016128215E+01  -9.646276299E+01   4.657276850E+01
   2.499400000E-02   1.005695263E+02  -3.016183896E+01  -9.645920626E+01   4.657665209E+01
   2.499500000E-02   1.005713798E+02  -3.016239577E+01  -9.645565181E+01   4.658049907E+01
   2.499600000E-02   1.005732357E+02  -3.016295331E+01  -9.645209808E+01   4.658431136E+01
   2.499700000E-02   1.005750903E+02  -3.016350909E+01  -9.644854394E+01   4.658808146E+01
   2.499800000E-02   1.005769438E+02  -3.016406533E+01  -9.644499484E+01   4.659181132E+01
   2.499900000E-02   1.005787973E+02  -3.016462081E+01  -9.644144268E+01   4.659550038E+01
   2.500000000E-02   1.005806497E+02  -3.016517618E+01  -9.643789806E+01   4.659915407E+01
   2.500000037E-02   1.005806503E+02  -3.016517639E+01  -9.643789673E+01   4.659915543E+01




          JOB CONCLUDED

          TOTAL JOB TIME            5.02
