
**** 06/03/13 10:23:40 ********* PSpice 9.2 (Mar 2000) ******** ID# 1 ********

 ** Profile: "SCHEMATIC1-2"  [ G:\44FZ\paralel-schematic1-2.sim ] 


 ****     CIRCUIT DESCRIPTION


******************************************************************************




** Creating circuit file "paralel-schematic1-2.sim.cir" 
** WARNING: THIS AUTOMATICALLY GENERATED FILE MAY BE OVERWRITTEN BY SUBSEQUENT SIMULATIONS

*Libraries: 
* Local Libraries :
* From [PSPICE NETLIST] section of g:\program files\Orcad\PSpice\PSpice.ini file:
.lib "nom.lib" 

*Analysis directives: 
.TRAN 1u 25ms 13ms 1u 
.OPTIONS NOBIAS
.OPTIONS NOMOD
.OPTIONS NOOUTMSG
.OPTIONS ITL4= 100
.OPTIONS NUMDGT= 10
.OPTIONS WIDTH= 132
.PROBE V(*) I(*) W(*) D(*) NOISE(*) 
.INC ".\paralel-SCHEMATIC1.net" 



**** INCLUDING paralel-SCHEMATIC1.net ****
* source PARALEL
R_R2         0 N50597  1MEG  
X_S4    N241303 0 N27236 N241265 SCHEMATIC1_S4 
X_S2    N236610 0 N27236 N235437 SCHEMATIC1_S2 
R_RB1         0 SHIM  3.33333  
R_R6         0 N260882  1MEG  
E_DIFF3         N241303 0 VALUE {V(N257386,N254383)}
R_RB2         0 N235437  4  
R_R8         0 N260240  1MEG  
X_U2         N260882 N254383 Sw_tClose PARAMS: tClose=24m ttran=1u Rclosed=0.01
+  Ropen=1Meg
E_E1         N62053 0 VALUE {
+  if(I(V_V1)<138.9473,(-25.641*log((139.2857-I(V_V1))/139.2857))/-1.204+128.2051,0)
+  }
R_RB3         0 N239113  4  
C_CN         N40356 RN1  0.001  
L_L2         N64666 RN1  5uH  
C_CF         N00729 N27236  0.009  
V_V4         N259871 0   0.7
R_R4         0 N254383  1MEG  
R_RK2         N234987 N64666  0.02630  
R_RCN         0 N40356  0.02171  
V_V3         N50597 0 DC 0.01 AC 1
+PULSE 0 0.8 0 0.0098m 0.0001m 0.01m 0.01m
R_RCF         N00729 0  6.51419e-3  
X_S3    N239167 0 N27236 N239113 SCHEMATIC1_S3 
V_V5         N260240 0   0.7
X_U3         N260009 N260882 Sw_tClose PARAMS: tClose=24m ttran=1u Rclosed=0.01
+  Ropen=1Meg
R_R7         0 N260009  1MEG  
L_L1         N134688 N27236  5uH  
V_V6         N257386 0   0.7
X_S1    N27337 0 N27236 SHIM SCHEMATIC1_S1 
R_RDN         0 N27236  40  
E_DIFF1         N50582 0 VALUE {V(N08877,N27236)}
E_DIFF4         N239167 0 VALUE {V(N260240,N260882)}
V_V2         N254251 0   1
V_V1         N62053 N134650 DC 0 AC 1 0
R_RB4         0 N241265  4  
V_Unom         N08877 0   100
R_R3         0 N254251  1MEG  
E_DIFF5         N236610 0 VALUE {V(N259871,N260009)}
R_RA         0 RN1  5  
R_RK1         N134688 N134650  0.02630  
E_DIFF2         N27337 0 VALUE {V(N50597,N50582)}
R_R5         0 N257386  1MEG  
X_SwStart         N27236 N234987 Sw_tClose PARAMS: tClose=14m ttran=1u
+  Rclosed=1u Ropen=1MEG
X_U1         N254383 N254251 Sw_tClose PARAMS: tClose=24m ttran=1u Rclosed=0.01
+  Ropen=1Meg
R_R1         0 N08877  1MEG  
R_R9         0 N259871  1MEG  
.IC         V(N134650 )=5
.PRINT         TRAN V([N27236]) I(R_RB1) I(R_RK1) I(R_RK2)
.subckt SCHEMATIC1_S4 1 2 3 4  
S_S4         3 4 1 2 _S4
RS_S4         1 2 1G
.MODEL         _S4 VSWITCH Roff=1e4 Ron=1m Voff=-1e-4 Von=1e-4
.ends SCHEMATIC1_S4

.subckt SCHEMATIC1_S2 1 2 3 4  
S_S2         3 4 1 2 _S2
RS_S2         1 2 1G
.MODEL         _S2 VSWITCH Roff=1e4 Ron=0.1m Voff=-1e-4 Von=1e-4
.ends SCHEMATIC1_S2

.subckt SCHEMATIC1_S3 1 2 3 4  
S_S3         3 4 1 2 _S3
RS_S3         1 2 1G
.MODEL         _S3 VSWITCH Roff=1e4 Ron=1m Voff=-1e-4 Von=1e-4
.ends SCHEMATIC1_S3

.subckt SCHEMATIC1_S1 1 2 3 4  
S_S1         3 4 1 2 _S1
RS_S1         1 2 1G
.MODEL         _S1 VSWITCH Roff=1e4 Ron=1m Voff=-1e-4 Von=1e-4
.ends SCHEMATIC1_S1

**** RESUMING paralel-schematic1-2.sim.cir ****
.END

WARNING -- Pulse Period < (Rise Time + Fall Time + Pulse Width) for V_V3
WARNING -- Pulse Period < (Rise Time + Fall Time + Pulse Width) for V_V3
**** 06/03/13 10:23:40 ********* PSpice 9.2 (Mar 2000) ******** ID# 1 ********

 ** Profile: "SCHEMATIC1-2"  [ G:\44FZ\paralel-schematic1-2.sim ] 


 ****     TRANSIENT ANALYSIS               TEMPERATURE =   27.000 DEG C


******************************************************************************



  TIME              V(N27236)         I(R_RB1)          I(R_RK1)          I(R_RK2)          

   1.300000000E-02   9.984606869E+01  -9.981280130E-03  -9.806647543E+01   9.984563692E-05
   1.300100000E-02   9.984817359E+01  -9.981489939E-03  -9.803760821E+01   9.984776771E-05
   1.300200000E-02   9.983615145E+01  -2.173023181E+00  -9.801264043E+01   9.983575485E-05
   1.300300000E-02   9.975512896E+01  -1.486759675E+01  -9.799906096E+01   9.975472967E-05
   1.300400000E-02   9.967346154E+01  -2.746403132E+01  -9.800230833E+01   9.967305947E-05
   1.300500000E-02   9.965686699E+01  -2.988812291E+01  -9.801553996E+01   9.965646436E-05
   1.300600000E-02   9.965594395E+01  -2.988784784E+01  -9.802807138E+01   9.965554044E-05
   1.300700000E-02   9.965501936E+01  -2.988756898E+01  -9.803949567E+01   9.965461500E-05
   1.300800000E-02   9.965408791E+01  -2.988728867E+01  -9.804991549E+01   9.965368305E-05
   1.300900000E-02   9.965314942E+01  -2.988700828E+01  -9.805944311E+01   9.965274486E-05
   1.301000000E-02   9.974900249E+01  -1.499975064E+01  -9.806438707E+01   9.974859590E-05
   1.301100000E-02   9.984825992E+01  -9.981498587E-03  -9.803591164E+01   9.984785538E-05
   1.301200000E-02   9.982323176E+01  -4.164523957E+00  -9.801240382E+01   9.982282989E-05
   1.301300000E-02   9.975512562E+01  -1.485035088E+01  -9.800007820E+01   9.975472015E-05
   1.301400000E-02   9.967348691E+01  -2.745746328E+01  -9.800212104E+01   9.967308800E-05
   1.301500000E-02   9.965716010E+01  -2.984530978E+01  -9.801497253E+01   9.965675612E-05
   1.301600000E-02   9.965596811E+01  -2.988785255E+01  -9.802753652E+01   9.965556768E-05
   1.301700000E-02   9.965503951E+01  -2.988757427E+01  -9.803901279E+01   9.965463369E-05
   1.301800000E-02   9.965410880E+01  -2.988729581E+01  -9.804947619E+01   9.965370717E-05
   1.301900000E-02   9.965317194E+01  -2.988701426E+01  -9.805904213E+01   9.965276534E-05
   1.302000000E-02   9.974939908E+01  -1.494163415E+01  -9.806403598E+01   9.974899523E-05
   1.302100000E-02   9.984827886E+01  -9.981501114E-03  -9.803558713E+01   9.984787802E-05
   1.302200000E-02   9.982322205E+01  -4.169133268E+00  -9.801211155E+01   9.982282216E-05
   1.302300000E-02   9.975509384E+01  -1.485856526E+01  -9.799981633E+01   9.975468836E-05
   1.302400000E-02   9.967353109E+01  -2.745390824E+01  -9.800188895E+01   9.967313217E-05
   1.302500000E-02   9.965717842E+01  -2.984593170E+01  -9.801477321E+01   9.965677356E-05
   1.302600000E-02   9.965598435E+01  -2.988786007E+01  -9.802734927E+01   9.965558915E-05
   1.302700000E-02   9.965506142E+01  -2.988758200E+01  -9.803883666E+01   9.965465588E-05
   1.302800000E-02   9.965412590E+01  -2.988730202E+01  -9.804931535E+01   9.965372950E-05
   1.302900000E-02   9.965318699E+01  -2.988702149E+01  -9.805889797E+01   9.965278696E-05
   1.303000000E-02   9.974934421E+01  -1.495302014E+01  -9.806390092E+01   9.974894312E-05
   1.303100000E-02   9.984829775E+01  -9.981502863E-03  -9.803547715E+01   9.984789871E-05
   1.303200000E-02   9.982324880E+01  -4.168190844E+00  -9.801200658E+01   9.982284858E-05
   1.303300000E-02   9.975508485E+01  -1.486318864E+01  -9.799971166E+01   9.975467937E-05
   1.303400000E-02   9.967349933E+01  -2.746193679E+01  -9.800179868E+01   9.967310042E-05
   1.303500000E-02   9.965719823E+01  -2.984639700E+01  -9.801467656E+01   9.965679250E-05
   1.303600000E-02   9.965600774E+01  -2.988786594E+01  -9.802726359E+01   9.965560548E-05
   1.303700000E-02   9.965507780E+01  -2.988758766E+01  -9.803876293E+01   9.965467021E-05
   1.303800000E-02   9.965414709E+01  -2.988730764E+01  -9.804924307E+01   9.965374969E-05
   1.303900000E-02   9.965321023E+01  -2.988702732E+01  -9.805882440E+01   9.965280314E-05
   1.304000000E-02   9.974929344E+01  -1.496436386E+01  -9.806383832E+01   9.974888765E-05
   1.304100000E-02   9.984832146E+01  -9.981504807E-03  -9.803540060E+01   9.984791408E-05
   1.304200000E-02   9.982324137E+01  -4.172700051E+00  -9.801194014E+01   9.982283866E-05
   1.304300000E-02   9.975510626E+01  -1.486294951E+01  -9.799966042E+01   9.975470079E-05
   1.304400000E-02   9.967349416E+01  -2.746577213E+01  -9.800174859E+01   9.967309524E-05
   1.304500000E-02   9.965720987E+01  -2.984702392E+01  -9.801464098E+01   9.965680355E-05
   1.304600000E-02   9.965602893E+01  -2.988787156E+01  -9.802722398E+01   9.965562567E-05
   1.304700000E-02   9.965510104E+01  -2.988759349E+01  -9.803871287E+01   9.965469240E-05
   1.304800000E-02   9.965416976E+01  -2.988731329E+01  -9.804920593E+01   9.965376531E-05
   1.304900000E-02   9.965323276E+01  -2.988703294E+01  -9.805878993E+01   9.965282333E-05
   1.305000000E-02   9.974969003E+01  -1.490624732E+01  -9.806378480E+01   9.974928334E-05
   1.305100000E-02   9.984833844E+01  -9.981506556E-03  -9.803537453E+01   9.984793477E-05
   1.305200000E-02   9.982326585E+01  -4.171573885E+00  -9.801191375E+01   9.982286510E-05
   1.305300000E-02   9.975509728E+01  -1.486731240E+01  -9.799962671E+01   9.975469181E-05
   1.305400000E-02   9.967351175E+01  -2.746598006E+01  -9.800171588E+01   9.967311283E-05
   1.305500000E-02   9.965723006E+01  -2.984740860E+01  -9.801460316E+01   9.965682287E-05
   1.305600000E-02   9.965604532E+01  -2.988787722E+01  -9.802719627E+01   9.965564729E-05
   1.305700000E-02   9.965511594E+01  -2.988759910E+01  -9.803868676E+01   9.965471386E-05
   1.305800000E-02   9.965418538E+01  -2.988731912E+01  -9.804917150E+01   9.965378749E-05
   1.305900000E-02   9.965324852E+01  -2.988703881E+01  -9.805875430E+01   9.965284567E-05
   1.306000000E-02   9.974918399E+01  -1.498709264E+01  -9.806377037E+01   9.974878008E-05
   1.306100000E-02   9.984835928E+01  -9.981508501E-03  -9.803533327E+01   9.984795742E-05
   1.306200000E-02   9.982325841E+01  -4.175886424E+00  -9.801187478E+01   9.982285735E-05
   1.306300000E-02   9.975511869E+01  -1.486679373E+01  -9.799959835E+01   9.975471322E-05
   1.306400000E-02   9.967347999E+01  -2.747360920E+01  -9.800169428E+01   9.967307634E-05
   1.306500000E-02   9.965724171E+01  -2.984798491E+01  -9.801458552E+01   9.965683266E-05
   1.306600000E-02   9.965606092E+01  -2.988788305E+01  -9.802716868E+01   9.965566219E-05
   1.306700000E-02   9.965513799E+01  -2.988760497E+01  -9.803865775E+01   9.965472892E-05
   1.306800000E-02   9.965420176E+01  -2.988732478E+01  -9.804915095E+01   9.965380183E-05
   1.306900000E-02   9.965326342E+01  -2.988704442E+01  -9.805872879E+01   9.965285985E-05
   1.307000000E-02   9.974957676E+01  -1.492897513E+01  -9.806372829E+01   9.974917213E-05
   1.307100000E-02   9.984837340E+01  -9.981510249E-03  -9.803532056E+01   9.984797084E-05
   1.307200000E-02   9.982325894E+01  -4.178440124E+00  -9.801184187E+01   9.982285767E-05
   1.307300000E-02   9.975508691E+01  -1.487443134E+01  -9.799956997E+01   9.975468143E-05
   1.307400000E-02   9.967352417E+01  -2.746946758E+01  -9.800166588E+01   9.967312052E-05
   1.307500000E-02   9.965699142E+01  -2.988816073E+01  -9.801472157E+01   9.965658783E-05
   1.307600000E-02   9.965606898E+01  -2.988788432E+01  -9.802727514E+01   9.965566444E-05
   1.307700000E-02   9.965513949E+01  -2.988760618E+01  -9.803875586E+01   9.965474048E-05
   1.307800000E-02   9.965420893E+01  -2.988732617E+01  -9.804922639E+01   9.965380443E-05
   1.307900000E-02   9.965327196E+01  -2.988704586E+01  -9.805880173E+01   9.965286606E-05
   1.308000000E-02   9.974951084E+01  -1.494030000E+01  -9.806379157E+01   9.974910586E-05
   1.308100000E-02   9.984838185E+01  -9.981511262E-03  -9.803536322E+01   9.984797893E-05
   1.308200000E-02   9.982327088E+01  -4.177436695E+00  -9.801189563E+01   9.982286950E-05
   1.308300000E-02   9.975513112E+01  -1.486832444E+01  -9.799961486E+01   9.975472564E-05
   1.308400000E-02   9.967349241E+01  -2.747510053E+01  -9.800170799E+01   9.967308876E-05
   1.308500000E-02   9.965699349E+01  -2.988816253E+01  -9.801476246E+01   9.965658979E-05
   1.308600000E-02   9.965607575E+01  -2.988788634E+01  -9.802730200E+01   9.965567092E-05
   1.308700000E-02   9.965514763E+01  -2.988760824E+01  -9.803877384E+01   9.965474215E-05
   1.308800000E-02   9.965421634E+01  -2.988732801E+01  -9.804925177E+01   9.965381032E-05
   1.308900000E-02   9.965327922E+01  -2.988704605E+01  -9.805882188E+01   9.965287297E-05
   1.309000000E-02   9.974944061E+01  -1.495170009E+01  -9.806380910E+01   9.974903545E-05
   1.309100000E-02   9.984838553E+01  -9.981511344E-03  -9.803536774E+01   9.984797974E-05
   1.309200000E-02   9.982325655E+01  -4.180271398E+00  -9.801190244E+01   9.982285518E-05
   1.309300000E-02   9.975509933E+01  -1.487400752E+01  -9.799962691E+01   9.975469386E-05
   1.309400000E-02   9.967348722E+01  -2.747660646E+01  -9.800171893E+01   9.967308357E-05
   1.309500000E-02   9.965699680E+01  -2.988816349E+01  -9.801475951E+01   9.965659431E-05
   1.309600000E-02   9.965607462E+01  -2.988788715E+01  -9.802729716E+01   9.965567118E-05
   1.309700000E-02   9.965515152E+01  -2.988760906E+01  -9.803877256E+01   9.965474719E-05
   1.309800000E-02   9.965421624E+01  -2.988732911E+01  -9.804924176E+01   9.965381747E-05
   1.309900000E-02   9.965328422E+01  -2.988704879E+01  -9.805880750E+01   9.965288049E-05
   1.310000000E-02   9.974937018E+01  -1.496313115E+01  -9.806381137E+01   9.974896485E-05
   1.310100000E-02   9.984838916E+01  -9.981512162E-03  -9.803538268E+01   9.984798588E-05
   1.310200000E-02   9.982327877E+01  -4.177525401E+00  -9.801191420E+01   9.982287728E-05
   1.310300000E-02   9.975509035E+01  -1.487608753E+01  -9.799962601E+01   9.975468487E-05
   1.310400000E-02   9.967350482E+01  -2.747457276E+01  -9.800171407E+01   9.967310118E-05
   1.310500000E-02   9.965700066E+01  -2.988816427E+01  -9.801476828E+01   9.965659781E-05
   1.310600000E-02   9.965607915E+01  -2.988788813E+01  -9.802729912E+01   9.965567535E-05
   1.310700000E-02   9.965515622E+01  -2.988761008E+01  -9.803877028E+01   9.965475152E-05
   1.310800000E-02   9.965422088E+01  -2.988733012E+01  -9.804923634E+01   9.965382179E-05
   1.310900000E-02   9.965328198E+01  -2.988704960E+01  -9.805881259E+01   9.965288406E-05
   1.311000000E-02   9.974930446E+01  -1.497442410E+01  -9.806381362E+01   9.974889513E-05
   1.311100000E-02   9.984839761E+01  -9.981512244E-03  -9.803536431E+01   9.984799125E-05
   1.311200000E-02   9.982326673E+01  -4.180305138E+00  -9.801189812E+01   9.982286514E-05
   1.311300000E-02   9.975511176E+01  -1.487339817E+01  -9.799962054E+01   9.975470628E-05
   1.311400000E-02   9.967347306E+01  -2.748007588E+01  -9.800171306E+01   9.967306942E-05
   1.311500000E-02   9.965700879E+01  -2.988816633E+01  -9.801475347E+01   9.965660559E-05
   1.311600000E-02   9.965608658E+01  -2.988788997E+01  -9.802729415E+01   9.965568242E-05
   1.311700000E-02   9.965515728E+01  -2.988761188E+01  -9.803876704E+01   9.965475252E-05
   1.311800000E-02   9.965422672E+01  -2.988733192E+01  -9.804923272E+01   9.965382142E-05
   1.311900000E-02   9.965328995E+01  -2.988705006E+01  -9.805880150E+01   9.965288441E-05
   1.312000000E-02   9.974968197E+01  -1.491630562E+01  -9.806379443E+01   9.974927628E-05
   1.312100000E-02   9.984839647E+01  -9.981513061E-03  -9.803537163E+01   9.984799284E-05
   1.312200000E-02   9.982326267E+01  -4.181401622E+00  -9.801188809E+01   9.982286109E-05
   1.312300000E-02   9.975507998E+01  -1.487897547E+01  -9.799960970E+01   9.975467450E-05
   1.312400000E-02   9.967351724E+01  -2.747391587E+01  -9.800170489E+01   9.967311360E-05
   1.312500000E-02   9.965701184E+01  -2.988816724E+01  -9.801475030E+01   9.965660864E-05
   1.312600000E-02   9.965609036E+01  -2.988789111E+01  -9.802728169E+01   9.965568621E-05
   1.312700000E-02   9.965516055E+01  -2.988761285E+01  -9.803875943E+01   9.965475579E-05
   1.312800000E-02   9.965422982E+01  -2.988733285E+01  -9.804922894E+01   9.965382453E-05
   1.312900000E-02   9.965329308E+01  -2.988705254E+01  -9.805879447E+01   9.965288754E-05
   1.313000000E-02   9.974916449E+01  -1.499714907E+01  -9.806380288E+01   9.974875846E-05
   1.313100000E-02   9.984840492E+01  -9.981513143E-03  -9.803535611E+01   9.984799820E-05
   1.313200000E-02   9.982327462E+01  -4.180257710E+00  -9.801188616E+01   9.982287293E-05
   1.313300000E-02   9.975512419E+01  -1.487267410E+01  -9.799961187E+01   9.975471871E-05
   1.313400000E-02   9.967348548E+01  -2.747936300E+01  -9.800170389E+01   9.967308184E-05
   1.313500000E-02   9.965701656E+01  -2.988816828E+01  -9.801474382E+01   9.965661300E-05
   1.313600000E-02   9.965609435E+01  -2.988789192E+01  -9.802728464E+01   9.965568984E-05
   1.313700000E-02   9.965516505E+01  -2.988761383E+01  -9.803875769E+01   9.965475994E-05
   1.313800000E-02   9.965423449E+01  -2.988733387E+01  -9.804922352E+01   9.965382884E-05
   1.313900000E-02   9.965329773E+01  -2.988705356E+01  -9.805878624E+01   9.965289183E-05
   1.314000000E-02   9.974954200E+01  -1.493902963E+01  -9.806378750E+01   9.974913596E-05
   1.314100000E-02   9.984840451E+01  -9.981513452E-03  -9.803535856E+01   9.984800053E-05
   1.314200000E-02   9.982327057E+01  -4.181317342E+00  -9.801188377E+01   9.982286888E-05
   1.314300000E-02   9.975509240E+01  -1.487820123E+01  -9.799960333E+01   9.975468692E-05
   1.314400000E-02   9.967352966E+01  -2.747315218E+01  -9.800169572E+01   9.967312346E-05
   1.314500000E-02   9.965701620E+01  -2.988816888E+01  -9.801474136E+01   9.965661265E-05
   1.314600000E-02   9.965609469E+01  -2.988789203E+01  -9.802727246E+01   9.965569018E-05
   1.314700000E-02   9.965517106E+01  -2.988761377E+01  -9.803875249E+01   9.965476566E-05
   1.314800000E-02   9.965423555E+01  -2.988733531E+01  -9.804921990E+01   9.965383575E-05
   1.314900000E-02   9.965330356E+01  -2.988705380E+01  -9.805878847E+01   9.965289874E-05
   1.315000000E-02   9.974947577E+01  -1.495040146E+01  -9.806378595E+01   9.974906574E-05
   1.315100000E-02   9.984841222E+01  -9.981514042E-03  -9.803534982E+01   9.984800516E-05
   1.315200000E-02   9.982328252E+01  -4.180140512E+00  -9.801188184E+01   9.982288071E-05
   1.315300000E-02   9.975508341E+01  -1.488014977E+01  -9.799959479E+01   9.975467793E-05
   1.315400000E-02   9.967349790E+01  -2.747855353E+01  -9.800169204E+01   9.967309171E-05
   1.315500000E-02   9.965702347E+01  -2.988816997E+01  -9.801474174E+01   9.965661956E-05
   1.315600000E-02   9.965610196E+01  -2.988789383E+01  -9.802726965E+01   9.965569710E-05
   1.315700000E-02   9.965517282E+01  -2.988761578E+01  -9.803874072E+01   9.965476736E-05
   1.315800000E-02   9.965424226E+01  -2.988733582E+01  -9.804920670E+01   9.965383626E-05
   1.315900000E-02   9.965330479E+01  -2.988705529E+01  -9.805878287E+01   9.965289854E-05
   1.316000000E-02   9.974940204E+01  -1.496175364E+01  -9.806378058E+01   9.974899564E-05
   1.316100000E-02   9.984841305E+01  -9.981514124E-03  -9.803533145E+01   9.984800870E-05
   1.316200000E-02   9.982326818E+01  -4.182832014E+00  -9.801186576E+01   9.982286638E-05
   1.316300000E-02   9.975510483E+01  -1.487733296E+01  -9.799959466E+01   9.975469935E-05
   1.316400000E-02   9.967349272E+01  -2.747986009E+01  -9.800169269E+01   9.967308653E-05
   1.316500000E-02   9.965702397E+01  -2.988817202E+01  -9.801473171E+01   9.965662006E-05
   1.316600000E-02   9.965610246E+01  -2.988789433E+01  -9.802726295E+01   9.965569760E-05
   1.316700000E-02   9.965517883E+01  -2.988761727E+01  -9.803874315E+01   9.965477307E-05
   1.316800000E-02   9.965424332E+01  -2.988733762E+01  -9.804921070E+01   9.965383726E-05
   1.316900000E-02   9.965330513E+01  -2.988705575E+01  -9.805877321E+01   9.965290480E-05
   1.317000000E-02   9.974978337E+01  -1.490363515E+01  -9.806376139E+01   9.974937679E-05
   1.317100000E-02   9.984841953E+01  -9.981514360E-03  -9.803534163E+01   9.984800757E-05
   1.317200000E-02   9.982329042E+01  -4.179958257E+00  -9.801187522E+01   9.982288632E-05
   1.317300000E-02   9.975509585E+01  -1.487923421E+01  -9.799958842E+01   9.975469037E-05
   1.317400000E-02   9.967351032E+01  -2.747765565E+01  -9.800168287E+01   9.967310412E-05
   1.317500000E-02   9.965703124E+01  -2.988817192E+01  -9.801472924E+01   9.965662242E-05
   1.317600000E-02   9.965610973E+01  -2.988789577E+01  -9.802726014E+01   9.965570315E-05
   1.317700000E-02   9.965518059E+01  -2.988761773E+01  -9.803873137E+01   9.965477477E-05
   1.317800000E-02   9.965424933E+01  -2.988733756E+01  -9.804920529E+01   9.965384297E-05
   1.317900000E-02   9.965331240E+01  -2.988705720E+01  -9.805877545E+01   9.965290579E-05
   1.318000000E-02   9.974926207E+01  -1.498447766E+01  -9.806377747E+01   9.974885533E-05
   1.318100000E-02   9.984842035E+01  -9.981515023E-03  -9.803532802E+01   9.984801566E-05
   1.318200000E-02   9.982327608E+01  -4.182619711E+00  -9.801186143E+01   9.982287417E-05
   1.318300000E-02   9.975511726E+01  -1.487637682E+01  -9.799958829E+01   9.975471178E-05
   1.318400000E-02   9.967347856E+01  -2.748299337E+01  -9.800168186E+01   9.967307236E-05
   1.318500000E-02   9.965703174E+01  -2.988817278E+01  -9.801472206E+01   9.965662748E-05
   1.318600000E-02   9.965610953E+01  -2.988789572E+01  -9.802726280E+01   9.965570431E-05
   1.318700000E-02   9.965518023E+01  -2.988761762E+01  -9.803873576E+01   9.965478033E-05
   1.318800000E-02   9.965424967E+01  -2.988733921E+01  -9.804920151E+01   9.965384467E-05
   1.318900000E-02   9.965331291E+01  -2.988705770E+01  -9.805876415E+01   9.965290630E-05
   1.319000000E-02   9.974964340E+01  -1.492635916E+01  -9.806375828E+01   9.974923647E-05
   1.319100000E-02   9.984842208E+01  -9.981514909E-03  -9.803533534E+01   9.984801453E-05
   1.319200000E-02   9.982327202E+01  -4.183602044E+00  -9.801185141E+01   9.982287011E-05
   1.319300000E-02   9.975508547E+01  -1.488179302E+01  -9.799957745E+01   9.975467999E-05
   1.319400000E-02   9.967352273E+01  -2.747667511E+01  -9.800167369E+01   9.967311654E-05
   1.319500000E-02   9.965703423E+01  -2.988817387E+01  -9.801471960E+01   9.965662712E-05
   1.319600000E-02   9.965610987E+01  -2.988789772E+01  -9.802725062E+01   9.965570465E-05
   1.319700000E-02   9.965518694E+01  -2.988761968E+01  -9.803872203E+01   9.965478083E-05
   1.319800000E-02   9.965425089E+01  -2.988733951E+01  -9.804919610E+01   9.965385039E-05
   1.319900000E-02   9.965331874E+01  -2.988705915E+01  -9.805876638E+01   9.965291321E-05
   1.320000000E-02   9.974957373E+01  -1.493767083E+01  -9.806375671E+01   9.974916663E-05
   1.320100000E-02   9.984842766E+01  -9.981515341E-03  -9.803531982E+01   9.984801989E-05
   1.320200000E-02   9.982328397E+01  -4.182349713E+00  -9.801185482E+01   9.982288196E-05
   1.320300000E-02   9.975512968E+01  -1.487534000E+01  -9.799957657E+01   9.975472421E-05
   1.320400000E-02   9.967349097E+01  -2.748197276E+01  -9.800167269E+01   9.967308478E-05
   1.320500000E-02   9.965703897E+01  -2.988817457E+01  -9.801472015E+01   9.965663436E-05
   1.320600000E-02   9.965611714E+01  -2.988789762E+01  -9.802724923E+01   9.965571157E-05
   1.320700000E-02   9.965518800E+01  -2.988761957E+01  -9.803871879E+01   9.965478183E-05
   1.320800000E-02   9.965425744E+01  -2.988734116E+01  -9.804918468E+01   9.965385073E-05
   1.320900000E-02   9.965332068E+01  -2.988705965E+01  -9.805875366E+01   9.965291372E-05
   1.321000000E-02   9.974949961E+01  -1.494908318E+01  -9.806375517E+01   9.974909251E-05
   1.321100000E-02   9.984842848E+01  -9.981516005E-03  -9.803530622E+01   9.984802343E-05
   1.321200000E-02   9.982326963E+01  -4.184971094E+00  -9.801184102E+01   9.982286762E-05
   1.321300000E-02   9.975509790E+01  -1.488071953E+01  -9.799957107E+01   9.975469242E-05
   1.321400000E-02   9.967353515E+01  -2.747561761E+01  -9.800166451E+01   9.967312895E-05
   1.321500000E-02   9.965704256E+01  -2.988817493E+01  -9.801470925E+01   9.965663795E-05
   1.321600000E-02   9.965612038E+01  -2.988789859E+01  -9.802724397E+01   9.965571482E-05
   1.321700000E-02   9.965519111E+01  -2.988762050E+01  -9.803871935E+01   9.965478494E-05
   1.321800000E-02   9.965426054E+01  -2.988734209E+01  -9.804918236E+01   9.965385384E-05
   1.321900000E-02   9.965332381E+01  -2.988706060E+01  -9.805874663E+01   9.965291685E-05
   1.322000000E-02   9.974942926E+01  -1.496050103E+01  -9.806374981E+01   9.974902199E-05
   1.322100000E-02   9.984843020E+01  -9.981515891E-03  -9.803531640E+01   9.984802230E-05
   1.322200000E-02   9.982328958E+01  -4.182026394E+00  -9.801185049E+01   9.982288756E-05
   1.322300000E-02   9.975508891E+01  -1.488252379E+01  -9.799956483E+01   9.975468343E-05
   1.322400000E-02   9.967350339E+01  -2.748087901E+01  -9.800166847E+01   9.967309720E-05
   1.322500000E-02   9.965704220E+01  -2.988817673E+01  -9.801471150E+01   9.965663759E-05
   1.322600000E-02   9.965612072E+01  -2.988790060E+01  -9.802723947E+01   9.965571515E-05
   1.322700000E-02   9.965519091E+01  -2.988762234E+01  -9.803871557E+01   9.965478474E-05
   1.322800000E-02   9.965426018E+01  -2.988734234E+01  -9.804918491E+01   9.965385347E-05
   1.322900000E-02   9.965332344E+01  -2.988706203E+01  -9.805875029E+01   9.965291648E-05
   1.323000000E-02   9.974935965E+01  -1.497180625E+01  -9.806375206E+01   9.974895220E-05
   1.323100000E-02   9.984843579E+01  -9.981516322E-03  -9.803530279E+01   9.984803039E-05
   1.323200000E-02   9.982327753E+01  -4.184621999E+00  -9.801183670E+01   9.982287541E-05
   1.323300000E-02   9.975511033E+01  -1.487957137E+01  -9.799956470E+01   9.975470485E-05
   1.323400000E-02   9.967347163E+01  -2.748612514E+01  -9.800166480E+01   9.967306544E-05
   1.323500000E-02   9.965704474E+01  -2.988817663E+01  -9.801471193E+01   9.965663724E-05
   1.323600000E-02   9.965612036E+01  -2.988790049E+01  -9.802723665E+01   9.965571479E-05
   1.323700000E-02   9.965519742E+01  -2.988762245E+01  -9.803871001E+01   9.965479097E-05
   1.323800000E-02   9.965426214E+01  -2.988734250E+01  -9.804917316E+01   9.965386125E-05
   1.323900000E-02   9.965332942E+01  -2.988706197E+01  -9.805874466E+01   9.965292356E-05
   1.324000000E-02   9.974973715E+01  -1.491368774E+01  -9.806373287E+01   9.974932970E-05
   1.324100000E-02   9.984843465E+01  -9.981516790E-03  -9.803531297E+01   9.984802926E-05
   1.324200000E-02   9.982327347E+01  -4.185541316E+00  -9.801183202E+01   9.982287135E-05
   1.324300000E-02   9.975507854E+01  -1.488489748E+01  -9.799956149E+01   9.975467306E-05
   1.324400000E-02   9.967351581E+01  -2.747971851E+01  -9.800165929E+01   9.967310961E-05
   1.324500000E-02   9.965704997E+01  -2.988817750E+01  -9.801470185E+01   9.965664050E-05
   1.324600000E-02   9.965612849E+01  -2.988790064E+01  -9.802722996E+01   9.965572118E-05
   1.324700000E-02   9.965519868E+01  -2.988762239E+01  -9.803870622E+01   9.965479216E-05
   1.324800000E-02   9.965426795E+01  -2.988734393E+01  -9.804917571E+01   9.965386089E-05
   1.324900000E-02   9.965333121E+01  -2.988706244E+01  -9.805874123E+01   9.965292390E-05
   1.325000000E-02   9.974921585E+01  -1.499453027E+01  -9.806374895E+01   9.974880823E-05
   1.325100000E-02   9.984843833E+01  -9.981516872E-03  -9.803529936E+01   9.984803007E-05
   1.325200000E-02   9.982328313E+01  -4.184226942E+00  -9.801183237E+01   9.982288101E-05
   1.325300000E-02   9.975512275E+01  -1.487835822E+01  -9.799955832E+01   9.975471728E-05
   1.325400000E-02   9.967348405E+01  -2.748493221E+01  -9.800165562E+01   9.967307786E-05
   1.325500000E-02   9.965704961E+01  -2.988817857E+01  -9.801470229E+01   9.965664465E-05
   1.325600000E-02   9.965612813E+01  -2.988790244E+01  -9.802723332E+01   9.965572221E-05
   1.325700000E-02   9.965519902E+01  -2.988762439E+01  -9.803870212E+01   9.965479250E-05
   1.325800000E-02   9.965426846E+01  -2.988734445E+01  -9.804917014E+01   9.965386140E-05
   1.325900000E-02   9.965333101E+01  -2.988706392E+01  -9.805874323E+01   9.965292370E-05
   1.326000000E-02   9.974959719E+01  -1.493641176E+01  -9.806373357E+01   9.974918575E-05
   1.326100000E-02   9.984844269E+01  -9.981516831E-03  -9.803529990E+01   9.984803422E-05
   1.326200000E-02   9.982328137E+01  -4.185123740E+00  -9.801182770E+01   9.982287914E-05
   1.326300000E-02   9.975509097E+01  -1.488365367E+01  -9.799955512E+01   9.975468549E-05
   1.326400000E-02   9.967352823E+01  -2.747849440E+01  -9.800165012E+01   9.967312203E-05
   1.326500000E-02   9.965705011E+01  -2.988817872E+01  -9.801469511E+01   9.965664515E-05
   1.326600000E-02   9.965612793E+01  -2.988790238E+01  -9.802722977E+01   9.965572201E-05
   1.326700000E-02   9.965520484E+01  -2.988762429E+01  -9.803870505E+01   9.965479803E-05
   1.326800000E-02   9.965426955E+01  -2.988734434E+01  -9.804916797E+01   9.965386242E-05
   1.326900000E-02   9.965333136E+01  -2.988706402E+01  -9.805873217E+01   9.965292405E-05
   1.327000000E-02   9.974952341E+01  -1.494777039E+01  -9.806373202E+01   9.974911560E-05
   1.327100000E-02   9.984844278E+01  -9.981517189E-03  -9.803529593E+01   9.984803703E-05
   1.327200000E-02   9.982329104E+01  -4.183789622E+00  -9.801182805E+01   9.982288881E-05
   1.327300000E-02   9.975508197E+01  -1.488538206E+01  -9.799954658E+01   9.975467649E-05
   1.327400000E-02   9.967349646E+01  -2.748368073E+01  -9.800165408E+01   9.967309027E-05
   1.327500000E-02   9.965705738E+01  -2.988817934E+01  -9.801469737E+01   9.965664479E-05
   1.327600000E-02   9.965613590E+01  -2.988790248E+01  -9.802722526E+01   9.965572235E-05
   1.327700000E-02   9.965520679E+01  -2.988762444E+01  -9.803869277E+01   9.965479853E-05
   1.327800000E-02   9.965427553E+01  -2.988734582E+01  -9.804916870E+01   9.965386811E-05
   1.327900000E-02   9.965333862E+01  -2.988706428E+01  -9.805873583E+01   9.965293096E-05
   1.328000000E-02   9.974945341E+01  -1.495913483E+01  -9.806373047E+01   9.974904179E-05
   1.328100000E-02   9.984844646E+01  -9.981517271E-03  -9.803528041E+01   9.984803784E-05
   1.328200000E-02   9.982327668E+01  -4.186333214E+00  -9.801181731E+01   9.982287446E-05
   1.328300000E-02   9.975510339E+01  -1.488235397E+01  -9.799954874E+01   9.975469792E-05
   1.328400000E-02   9.967349128E+01  -2.748477979E+01  -9.800164709E+01   9.967308509E-05
   1.328500000E-02   9.965705735E+01  -2.988818051E+01  -9.801469311E+01   9.965665203E-05
   1.328600000E-02   9.965613554E+01  -2.988790428E+01  -9.802722244E+01   9.965572927E-05
   1.328700000E-02   9.965520643E+01  -2.988762624E+01  -9.803869571E+01   9.965479955E-05
   1.328800000E-02   9.965427587E+01  -2.988734629E+01  -9.804915878E+01   9.965386845E-05
   1.328900000E-02   9.965333913E+01  -2.988706597E+01  -9.805872311E+01   9.965293147E-05
   1.329000000E-02   9.974983093E+01  -1.490101632E+01  -9.806371509E+01   9.974942294E-05
   1.329100000E-02   9.984845009E+01  -9.981517739E-03  -9.803529537E+01   9.984803671E-05
   1.329200000E-02   9.982329894E+01  -4.183313402E+00  -9.801182906E+01   9.982289442E-05
   1.329300000E-02   9.975509441E+01  -1.488405371E+01  -9.799954783E+01   9.975468893E-05
   1.329400000E-02   9.967350888E+01  -2.748237652E+01  -9.800164490E+01   9.967310269E-05
   1.329500000E-02   9.965705752E+01  -2.988818057E+01  -9.801469063E+01   9.965665221E-05
   1.329600000E-02   9.965613604E+01  -2.988790443E+01  -9.802721575E+01   9.965572977E-05
   1.329700000E-02   9.965520623E+01  -2.988762618E+01  -9.803869192E+01   9.965479935E-05
   1.329800000E-02   9.965427550E+01  -2.988734618E+01  -9.804916133E+01   9.965386809E-05
   1.329900000E-02   9.965333876E+01  -2.988706586E+01  -9.805872677E+01   9.965293110E-05
   1.330000000E-02   9.974930963E+01  -1.498185885E+01  -9.806373117E+01   9.974889783E-05
   1.330100000E-02   9.984845091E+01  -9.981517821E-03  -9.803528176E+01   9.984804207E-05
   1.330200000E-02   9.982328458E+01  -4.185839164E+00  -9.801181527E+01   9.982288225E-05
   1.330300000E-02   9.975511582E+01  -1.488100101E+01  -9.799954236E+01   9.975471035E-05
   1.330400000E-02   9.967347712E+01  -2.748752277E+01  -9.800164886E+01   9.967307093E-05
   1.330500000E-02   9.965705717E+01  -2.988818118E+01  -9.801469289E+01   9.965665185E-05
   1.330600000E-02   9.965613568E+01  -2.988790432E+01  -9.802722056E+01   9.965572941E-05
   1.330700000E-02   9.965521275E+01  -2.988762628E+01  -9.803868782E+01   9.965480558E-05
   1.330800000E-02   9.965427746E+01  -2.988734787E+01  -9.804915576E+01   9.965386998E-05
   1.330900000E-02   9.965333856E+01  -2.988706617E+01  -9.805872877E+01   9.965293090E-05
   1.331000000E-02   9.974968714E+01  -1.492373939E+01  -9.806371579E+01   9.974927897E-05
   1.331100000E-02   9.984844977E+01  -9.981517707E-03  -9.803529194E+01   9.984804367E-05
   1.331200000E-02   9.982328052E+01  -4.186690571E+00  -9.801181059E+01   9.982287310E-05
   1.331300000E-02   9.975508404E+01  -1.488623131E+01  -9.799953916E+01   9.975467638E-05
   1.331400000E-02   9.967352130E+01  -2.748102272E+01  -9.800163572E+01   9.967311510E-05
   1.331500000E-02   9.965706057E+01  -2.988818251E+01  -9.801468098E+01   9.965665235E-05
   1.331600000E-02   9.965614166E+01  -2.988790617E+01  -9.802721556E+01   9.965572921E-05
   1.331700000E-02   9.965521384E+01  -2.988762808E+01  -9.803869075E+01   9.965480522E-05
   1.331800000E-02   9.965428327E+01  -2.988734813E+01  -9.804915358E+01   9.965387551E-05
   1.331900000E-02   9.965334654E+01  -2.988706627E+01  -9.805871771E+01   9.965293852E-05
   1.332000000E-02   9.974961756E+01  -1.493503879E+01  -9.806371423E+01   9.974920558E-05
   1.332100000E-02   9.984845059E+01  -9.981518138E-03  -9.803527833E+01   9.984804448E-05
   1.332200000E-02   9.982329020E+01  -4.185310897E+00  -9.801181095E+01   9.982288277E-05
   1.332300000E-02   9.975512825E+01  -1.487960009E+01  -9.799954133E+01   9.975472059E-05
   1.332400000E-02   9.967348954E+01  -2.748614732E+01  -9.800163968E+01   9.967308335E-05
   1.332500000E-02   9.965706184E+01  -2.988818219E+01  -9.801468508E+01   9.965665617E-05
   1.332600000E-02   9.965614001E+01  -2.988790524E+01  -9.802721751E+01   9.965573338E-05
   1.332700000E-02   9.965521708E+01  -2.988762719E+01  -9.803868847E+01   9.965480364E-05
   1.332800000E-02   9.965428174E+01  -2.988734879E+01  -9.804915435E+01   9.965387254E-05
   1.332900000E-02   9.965334355E+01  -2.988706728E+01  -9.805871711E+01   9.965293553E-05
   1.333000000E-02   9.974954336E+01  -1.494646341E+01  -9.806371650E+01   9.974913138E-05
   1.333100000E-02   9.984845427E+01  -9.981518220E-03  -9.803526758E+01   9.984804530E-05
   1.333200000E-02   9.982327584E+01  -4.187814015E+00  -9.801180250E+01   9.982286842E-05
   1.333300000E-02   9.975509646E+01  -1.488481074E+01  -9.799953278E+01   9.975468880E-05
   1.333400000E-02   9.967353372E+01  -2.747962562E+01  -9.800163418E+01   9.967312752E-05
   1.333500000E-02   9.965706202E+01  -2.988818344E+01  -9.801467966E+01   9.965665635E-05
   1.333600000E-02   9.965614051E+01  -2.988790730E+01  -9.802721081E+01   9.965573388E-05
   1.333700000E-02   9.965521688E+01  -2.988762904E+01  -9.803868469E+01   9.965480936E-05
   1.333800000E-02   9.965428137E+01  -2.988734903E+01  -9.804915072E+01   9.965387354E-05
   1.333900000E-02   9.965334939E+01  -2.988706717E+01  -9.805871934E+01   9.965293517E-05
   1.334000000E-02   9.974947309E+01  -1.495786900E+01  -9.806371114E+01   9.974906093E-05
   1.334100000E-02   9.984845790E+01  -9.981518688E-03  -9.803527777E+01   9.984804416E-05
   1.334200000E-02   9.982329810E+01  -4.184753774E+00  -9.801181196E+01   9.982288838E-05
   1.334300000E-02   9.975508747E+01  -1.488645441E+01  -9.799953188E+01   9.975467981E-05
   1.334400000E-02   9.967350196E+01  -2.748473058E+01  -9.800163546E+01   9.967309576E-05
   1.334500000E-02   9.965706929E+01  -2.988818333E+01  -9.801468483E+01   9.965665599E-05
   1.334600000E-02   9.965614778E+01  -2.988790719E+01  -9.802720942E+01   9.965573352E-05
   1.334700000E-02   9.965521864E+01  -2.988762914E+01  -9.803867912E+01   9.965480970E-05
   1.334800000E-02   9.965428808E+01  -2.988734918E+01  -9.804914515E+01   9.965387996E-05
   1.334900000E-02   9.965335061E+01  -2.988706866E+01  -9.805871516E+01   9.965294224E-05
   1.335000000E-02   9.974939958E+01  -1.496918648E+01  -9.806371339E+01   9.974898742E-05
   1.335100000E-02   9.984845872E+01  -9.981518770E-03  -9.803526416E+01   9.984804953E-05
   1.335200000E-02   9.982328374E+01  -4.187242361E+00  -9.801179817E+01   9.982287621E-05
   1.335300000E-02   9.975510889E+01  -1.488334850E+01  -9.799953175E+01   9.975469614E-05
   1.335400000E-02   9.967347020E+01  -2.748982466E+01  -9.800163446E+01   9.967306401E-05
   1.335500000E-02   9.965706979E+01  -2.988818348E+01  -9.801467287E+01   9.965665649E-05
   1.335600000E-02   9.965614758E+01  -2.988790713E+01  -9.802721067E+01   9.965573924E-05
   1.335700000E-02   9.965521828E+01  -2.988762903E+01  -9.803868351E+01   9.965481070E-05
   1.335800000E-02   9.965428772E+01  -2.988734908E+01  -9.804914916E+01   9.965387960E-05
   1.335900000E-02   9.965335096E+01  -2.988706876E+01  -9.805871171E+01   9.965294258E-05
   1.336000000E-02   9.974977708E+01  -1.491106701E+01  -9.806370183E+01   9.974936857E-05
   1.336100000E-02   9.984845757E+01  -9.981518656E-03  -9.803527910E+01   9.984805112E-05
   1.336200000E-02   9.982327968E+01  -4.188058015E+00  -9.801179578E+01   9.982287215E-05
   1.336300000E-02   9.975507711E+01  -1.488852715E+01  -9.799952854E+01   9.975466435E-05
   1.336400000E-02   9.967351437E+01  -2.748327436E+01  -9.800162896E+01   9.967310818E-05
   1.336500000E-02   9.965706943E+01  -2.988818409E+01  -9.801467518E+01   9.965666341E-05
   1.336600000E-02   9.965614792E+01  -2.988790723E+01  -9.802720612E+01   9.965574094E-05
   1.336700000E-02   9.965521879E+01  -2.988762918E+01  -9.803867121E+01   9.965481120E-05
   1.336800000E-02   9.965428752E+01  -2.988735057E+01  -9.804914375E+01   9.965387940E-05
   1.336900000E-02   9.965335059E+01  -2.988706901E+01  -9.805871394E+01   9.965294222E-05
   1.337000000E-02   9.974925578E+01  -1.499191051E+01  -9.806371411E+01   9.974884347E-05
   1.337100000E-02   9.984846126E+01  -9.981518738E-03  -9.803526359E+01   9.984805194E-05
   1.337200000E-02   9.982328936E+01  -4.186642861E+00  -9.801179919E+01   9.982288183E-05
   1.337300000E-02   9.975512132E+01  -1.488184768E+01  -9.799952766E+01   9.975470857E-05
   1.337400000E-02   9.967348261E+01  -2.748835003E+01  -9.800163291E+01   9.967307642E-05
   1.337500000E-02   9.965706993E+01  -2.988818543E+01  -9.801466800E+01   9.965666390E-05
   1.337600000E-02   9.965614772E+01  -2.988790908E+01  -9.802720258E+01   9.965574074E-05
   1.337700000E-02   9.965522463E+01  -2.988763098E+01  -9.803867417E+01   9.965481084E-05
   1.337800000E-02   9.965428929E+01  -2.988735103E+01  -9.804913996E+01   9.965387974E-05
   1.337900000E-02   9.965335110E+01  -2.988706916E+01  -9.805870265E+01   9.965294273E-05
   1.338000000E-02   9.974963331E+01  -1.493379103E+01  -9.806369872E+01   9.974922097E-05
   1.338100000E-02   9.984846012E+01  -9.981518624E-03  -9.803527854E+01   9.984805080E-05
   1.338200000E-02   9.982328530E+01  -4.187444665E+00  -9.801179680E+01   9.982287777E-05
   1.338300000E-02   9.975508953E+01  -1.488700873E+01  -9.799952445E+01   9.975467678E-05
   1.338400000E-02   9.967352679E+01  -2.748178190E+01  -9.800162473E+01   9.967312060E-05
   1.338500000E-02   9.965706957E+01  -2.988818532E+01  -9.801467316E+01   9.965666355E-05
   1.338600000E-02   9.965614806E+01  -2.988790918E+01  -9.802719803E+01   9.965574108E-05
   1.338700000E-02   9.965522513E+01  -2.988763113E+01  -9.803866806E+01   9.965481134E-05
   1.338800000E-02   9.965428909E+01  -2.988735097E+01  -9.804914218E+01   9.965387954E-05
   1.338900000E-02   9.965335073E+01  -2.988707060E+01  -9.805870631E+01   9.965294236E-05
   1.339000000E-02   9.974955961E+01  -1.494513740E+01  -9.806370098E+01   9.974914728E-05
   1.339100000E-02   9.984846570E+01  -9.981519056E-03  -9.803526493E+01   9.984805162E-05
   1.339200000E-02   9.982329726E+01  -4.186018202E+00  -9.801179715E+01   9.982288744E-05
   1.339300000E-02   9.975508054E+01  -1.488860735E+01  -9.799952126E+01   9.975466778E-05
   1.339400000E-02   9.967349503E+01  -2.748684040E+01  -9.800162374E+01   9.967308884E-05
   1.339500000E-02   9.965707239E+01  -2.988818531E+01  -9.801466893E+01   9.965666351E-05
   1.339600000E-02   9.965614770E+01  -2.988790907E+01  -9.802720142E+01   9.965574072E-05
   1.339700000E-02   9.965522477E+01  -2.988763102E+01  -9.803867245E+01   9.965481690E-05
   1.339800000E-02   9.965429563E+01  -2.988735107E+01  -9.804913840E+01   9.965388124E-05
   1.339900000E-02   9.965335816E+01  -2.988707054E+01  -9.805870833E+01   9.965294216E-05
   1.340000000E-02   9.974948952E+01  -1.495651410E+01  -9.806370324E+01   9.974907702E-05
   1.340100000E-02   9.984846652E+01  -9.981519720E-03  -9.803524941E+01   9.984805243E-05
   1.340200000E-02   9.982328290E+01  -4.188475516E+00  -9.801178641E+01   9.982287308E-05
   1.340300000E-02   9.975510196E+01  -1.488545479E+01  -9.799952342E+01   9.975468921E-05
   1.340400000E-02   9.967348985E+01  -2.748781837E+01  -9.800162438E+01   9.967308366E-05
   1.340500000E-02   9.965707734E+01  -2.988818537E+01  -9.801466636E+01   9.965666368E-05
   1.340600000E-02   9.965615583E+01  -2.988790922E+01  -9.802719472E+01   9.965574122E-05
   1.340700000E-02   9.965522599E+01  -2.988763096E+01  -9.803866867E+01   9.965481670E-05
   1.340800000E-02   9.965429527E+01  -2.988735096E+01  -9.804913477E+01   9.965388679E-05
   1.340900000E-02   9.965335851E+01  -2.988707065E+01  -9.805870345E+01   9.965294978E-05
   1.341000000E-02   9.974986703E+01  -1.489839463E+01  -9.806368786E+01   9.974945453E-05
   1.341100000E-02   9.984846538E+01  -9.981519605E-03  -9.803526437E+01   9.984805584E-05
   1.341200000E-02   9.982330287E+01  -4.185370069E+00  -9.801179816E+01   9.982289524E-05
   1.341300000E-02   9.975509298E+01  -1.488703591E+01  -9.799951717E+01   9.975468022E-05
   1.341400000E-02   9.967350745E+01  -2.748529768E+01  -9.800162219E+01   9.967310125E-05
   1.341500000E-02   9.965707515E+01  -2.988818547E+01  -9.801467089E+01   9.965666768E-05
   1.341600000E-02   9.965615343E+01  -2.988790928E+01  -9.802720175E+01   9.965574501E-05
   1.341700000E-02   9.965522336E+01  -2.988763096E+01  -9.803868142E+01   9.965481435E-05
   1.341800000E-02   9.965429266E+01  -2.988735251E+01  -9.804914580E+01   9.965388311E-05
   1.341900000E-02   9.965335569E+01  -2.988707090E+01  -9.805870691E+01   9.965294590E-05
   1.342000000E-02   9.974934193E+01  -1.497923813E+01  -9.806370013E+01   9.974893307E-05
   1.342100000E-02   9.984846620E+01  -9.981519687E-03  -9.803525361E+01   9.984805939E-05
   1.342200000E-02   9.982328851E+01  -4.187819155E+00  -9.801178971E+01   9.982288088E-05
   1.342300000E-02   9.975511439E+01  -1.488387358E+01  -9.799951933E+01   9.975470164E-05
   1.342400000E-02   9.967347569E+01  -2.749033710E+01  -9.800162615E+01   9.967306950E-05
   1.342500000E-02   9.965707748E+01  -2.988818732E+01  -9.801466149E+01   9.965666655E-05
   1.342600000E-02   9.965615527E+01  -2.988790941E+01  -9.802719600E+01   9.965574658E-05
   1.342700000E-02   9.965522597E+01  -2.988763251E+01  -9.803866749E+01   9.965481804E-05
   1.342800000E-02   9.965429541E+01  -2.988735291E+01  -9.804913321E+01   9.965388694E-05
   1.342900000E-02   9.965335865E+01  -2.988707105E+01  -9.805869582E+01   9.965294992E-05
   1.343000000E-02   9.974972326E+01  -1.492111865E+01  -9.806368857E+01   9.974931057E-05
   1.343100000E-02   9.984846506E+01  -9.981519573E-03  -9.803526570E+01   9.984805826E-05
   1.343200000E-02   9.982328445E+01  -4.188593513E+00  -9.801178198E+01   9.982287682E-05
   1.343300000E-02   9.975508260E+01  -1.488899458E+01  -9.799951384E+01   9.975466985E-05
   1.343400000E-02   9.967351987E+01  -2.748373018E+01  -9.800161797E+01   9.967311367E-05
   1.343500000E-02   9.965707712E+01  -2.988818721E+01  -9.801466666E+01   9.965667074E-05
   1.343600000E-02   9.965615561E+01  -2.988791107E+01  -9.802719145E+01   9.965574828E-05
   1.343700000E-02   9.965522648E+01  -2.988763302E+01  -9.803866139E+01   9.965481854E-05
   1.343800000E-02   9.965429521E+01  -2.988735285E+01  -9.804913542E+01   9.965388674E-05
   1.343900000E-02   9.965335828E+01  -2.988707094E+01  -9.805869948E+01   9.965294956E-05
   1.344000000E-02   9.974919813E+01  -1.500196120E+01  -9.806370466E+01   9.974878547E-05
   1.344100000E-02   9.984846874E+01  -9.981519655E-03  -9.803525496E+01   9.984805907E-05
   1.344200000E-02   9.982329413E+01  -4.187138991E+00  -9.801178768E+01   9.982288649E-05
   1.344300000E-02   9.975512681E+01  -1.488225951E+01  -9.799951829E+01   9.975471406E-05
   1.344400000E-02   9.967348811E+01  -2.748875118E+01  -9.800162193E+01   9.967308191E-05
   1.344500000E-02   9.965707709E+01  -2.988818720E+01  -9.801466721E+01   9.965667070E-05
   1.344600000E-02   9.965615525E+01  -2.988791096E+01  -9.802719626E+01   9.965574792E-05
   1.344700000E-02   9.965523232E+01  -2.988763291E+01  -9.803866578E+01   9.965481818E-05
   1.344800000E-02   9.965429698E+01  -2.988735295E+01  -9.804913164E+01   9.965388708E-05
   1.344900000E-02   9.965335879E+01  -2.988707264E+01  -9.805869438E+01   9.965295007E-05
   1.345000000E-02   9.974957566E+01  -1.494384173E+01  -9.806368928E+01   9.974916297E-05
   1.345100000E-02   9.984846956E+01  -9.981519737E-03  -9.803523944E+01   9.984805989E-05
   1.345200000E-02   9.982327977E+01  -4.189570620E+00  -9.801177694E+01   9.982287214E-05
   1.345300000E-02   9.975509503E+01  -1.488736701E+01  -9.799951509E+01   9.975468228E-05
   1.345400000E-02   9.967353228E+01  -2.748213091E+01  -9.800161147E+01   9.967312609E-05
   1.345500000E-02   9.965707726E+01  -2.988818725E+01  -9.801465986E+01   9.965667088E-05
   1.345600000E-02   9.965615575E+01  -2.988791111E+01  -9.802718814E+01   9.965574842E-05
   1.345700000E-02   9.965523212E+01  -2.988763285E+01  -9.803866200E+01   9.965481798E-05
   1.345800000E-02   9.965429662E+01  -2.988735284E+01  -9.804912802E+01   9.965388672E-05
   1.345900000E-02   9.965335843E+01  -2.988707253E+01  -9.805869662E+01   9.965294970E-05
   1.346000000E-02   9.974950165E+01  -1.495523506E+01  -9.806368773E+01   9.974908897E-05
   1.346100000E-02   9.984847319E+01  -9.981519623E-03  -9.803525439E+01   9.984805875E-05
   1.346200000E-02   9.982330203E+01  -4.186440379E+00  -9.801178869E+01   9.982289211E-05
   1.346300000E-02   9.975508604E+01  -1.488891466E+01  -9.799950884E+01   9.975467328E-05
   1.346400000E-02   9.967350052E+01  -2.748713914E+01  -9.800161542E+01   9.967309433E-05
   1.346500000E-02   9.965707975E+01  -2.988818714E+01  -9.801466502E+01   9.965667053E-05
   1.346600000E-02   9.965615540E+01  -2.988791100E+01  -9.802719296E+01   9.965574806E-05
   1.346700000E-02   9.965523246E+01  -2.988763295E+01  -9.803865786E+01   9.965481832E-05
   1.346800000E-02   9.965429712E+01  -2.988735299E+01  -9.804912245E+01   9.965388722E-05
   1.346900000E-02   9.965336443E+01  -2.988707247E+01  -9.805869244E+01   9.965294950E-05
   1.347000000E-02   9.974943188E+01  -1.496656480E+01  -9.806368998E+01   9.974901538E-05
   1.347100000E-02   9.984847401E+01  -9.981520054E-03  -9.803524364E+01   9.984805957E-05
   1.347200000E-02   9.982328767E+01  -4.188863422E+00  -9.801178024E+01   9.982287775E-05
   1.347300000E-02   9.975510746E+01  -1.488571332E+01  -9.799951100E+01   9.975469470E-05
   1.347400000E-02   9.967349535E+01  -2.748806852E+01  -9.800161607E+01   9.967308916E-05
   1.347500000E-02   9.965708026E+01  -2.988818729E+01  -9.801465499E+01   9.965667102E-05
   1.347600000E-02   9.965616210E+01  -2.988791115E+01  -9.802718006E+01   9.965574856E-05
   1.347700000E-02   9.965523369E+01  -2.988763289E+01  -9.803865886E+01   9.965482403E-05
   1.347800000E-02   9.965430296E+01  -2.988735444E+01  -9.804912645E+01   9.965388822E-05
   1.347900000E-02   9.965336620E+01  -2.988707293E+01  -9.805868898E+01   9.965294984E-05
   1.348000000E-02   9.974980938E+01  -1.490844627E+01  -9.806367842E+01   9.974939653E-05
   1.348100000E-02   9.984847287E+01  -9.981519941E-03  -9.803525573E+01   9.984805843E-05
   1.348200000E-02   9.982328361E+01  -4.189615983E+00  -9.801177251E+01   9.982287368E-05
   1.348300000E-02   9.975507567E+01  -1.489080337E+01  -9.799950551E+01   9.975466292E-05
   1.348400000E-02   9.967351294E+01  -2.748550364E+01  -9.800161388E+01   9.967310675E-05
   1.348500000E-02   9.965708468E+01  -2.988818790E+01  -9.801466015E+01   9.965667067E-05
   1.348600000E-02   9.965616317E+01  -2.988791104E+01  -9.802718487E+01   9.965574820E-05
   1.348700000E-02   9.965523403E+01  -2.988763299E+01  -9.803865472E+01   9.965482437E-05
   1.348800000E-02   9.965430276E+01  -2.988735438E+01  -9.804912867E+01   9.965388801E-05
   1.348900000E-02   9.965336583E+01  -2.988707282E+01  -9.805869264E+01   9.965295540E-05
   1.349000000E-02   9.974928428E+01  -1.498928883E+01  -9.806369450E+01   9.974887142E-05
   1.349100000E-02   9.984847369E+01  -9.981520605E-03  -9.803524498E+01   9.984805925E-05
   1.349200000E-02   9.982329329E+01  -4.188139451E+00  -9.801177821E+01   9.982288336E-05
   1.349300000E-02   9.975511988E+01  -1.488403646E+01  -9.799950997E+01   9.975470713E-05
   1.349400000E-02   9.967348118E+01  -2.749049593E+01  -9.800161516E+01   9.967307026E-05
   1.349500000E-02   9.965708517E+01  -2.988818924E+01  -9.801465297E+01   9.965667116E-05
   1.349600000E-02   9.965616297E+01  -2.988791134E+01  -9.802718753E+01   9.965574800E-05
   1.349700000E-02   9.965523367E+01  -2.988763444E+01  -9.803865911E+01   9.965482401E-05
   1.349800000E-02   9.965430310E+01  -2.988735484E+01  -9.804912488E+01   9.965389428E-05
   1.349900000E-02   9.965336634E+01  -2.988707297E+01  -9.805868755E+01   9.965295726E-05
   1.350000000E-02   9.974966179E+01  -1.493116935E+01  -9.806368294E+01   9.974924893E-05
   1.350100000E-02   9.984847255E+01  -9.981520490E-03  -9.803525517E+01   9.984805812E-05
   1.350200000E-02   9.982328923E+01  -4.188883496E+00  -9.801177353E+01   9.982287930E-05
   1.350300000E-02   9.975508810E+01  -1.488911520E+01  -9.799950676E+01   9.975467534E-05
   1.350400000E-02   9.967352536E+01  -2.748384649E+01  -9.800160965E+01   9.967311444E-05
   1.350500000E-02   9.965708482E+01  -2.988818913E+01  -9.801465813E+01   9.965667080E-05
   1.350600000E-02   9.965616331E+01  -2.988791299E+01  -9.802718299E+01   9.965574834E-05
   1.350700000E-02   9.965523417E+01  -2.988763494E+01  -9.803865300E+01   9.965482452E-05
   1.350800000E-02   9.965430290E+01  -2.988735478E+01  -9.804912090E+01   9.965389407E-05
   1.350900000E-02   9.965336598E+01  -2.988707286E+01  -9.805868979E+01   9.965295690E-05
   1.351000000E-02   9.974958817E+01  -1.494250346E+01  -9.806368138E+01   9.974917531E-05
   1.351100000E-02   9.984847337E+01  -9.981520573E-03  -9.803524442E+01   9.984806348E-05
   1.351200000E-02   9.982329890E+01  -4.187400383E+00  -9.801177922E+01   9.982289116E-05
   1.351300000E-02   9.975513231E+01  -1.488233847E+01  -9.799951122E+01   9.975471956E-05
   1.351400000E-02   9.967349360E+01  -2.748882733E+01  -9.800161362E+01   9.967308268E-05
   1.351500000E-02   9.965708478E+01  -2.988818912E+01  -9.801465391E+01   9.965667077E-05
   1.351600000E-02   9.965616295E+01  -2.988791288E+01  -9.802718638E+01   9.965575390E-05
   1.351700000E-02   9.965523381E+01  -2.988763483E+01  -9.803865739E+01   9.965482552E-05
   1.351800000E-02   9.965430325E+01  -2.988735488E+01  -9.804911712E+01   9.965389442E-05
   1.351900000E-02   9.965336577E+01  -2.988707435E+01  -9.805869182E+01   9.965295670E-05
   1.352000000E-02   9.974951801E+01  -1.495389242E+01  -9.806367983E+01   9.974910497E-05
   1.352100000E-02   9.984847705E+01  -9.981520655E-03  -9.803523367E+01   9.984806702E-05
   1.352200000E-02   9.982328454E+01  -4.189804661E+00  -9.801177077E+01   9.982287680E-05
   1.352300000E-02   9.975510053E+01  -1.488740739E+01  -9.799950801E+01   9.975468777E-05
   1.352400000E-02   9.967348841E+01  -2.748973323E+01  -9.800160930E+01   9.967307749E-05
   1.352500000E-02   9.965708495E+01  -2.988818918E+01  -9.801465134E+01   9.965667094E-05
   1.352600000E-02   9.965616345E+01  -2.988791303E+01  -9.802717968E+01   9.965575439E-05
   1.352700000E-02   9.965523361E+01  -2.988763477E+01  -9.803865361E+01   9.965482531E-05
   1.352800000E-02   9.965430288E+01  -2.988735477E+01  -9.804911969E+01   9.965389405E-05
   1.352900000E-02   9.965336612E+01  -2.988707446E+01  -9.805868215E+01   9.965295704E-05
   1.353000000E-02   9.974944370E+01  -1.496533271E+01  -9.806368211E+01   9.974903067E-05
   1.353100000E-02   9.984847591E+01  -9.981520540E-03  -9.803524862E+01   9.984806589E-05
   1.353200000E-02   9.982330452E+01  -4.186646897E+00  -9.801178252E+01   9.982289677E-05
   1.353300000E-02   9.975509154E+01  -1.488891595E+01  -9.799950177E+01   9.975467879E-05
   1.353400000E-02   9.967350601E+01  -2.748714157E+01  -9.800160711E+01   9.967309255E-05
   1.353500000E-02   9.965708460E+01  -2.988818907E+01  -9.801465650E+01   9.965667330E-05
   1.353600000E-02   9.965616309E+01  -2.988791293E+01  -9.802718449E+01   9.965575404E-05
   1.353700000E-02   9.965524015E+01  -2.988763488E+01  -9.803864947E+01   9.965482566E-05
   1.353800000E-02   9.965430482E+01  -2.988735492E+01  -9.804911412E+01   9.965389456E-05
   1.353900000E-02   9.965336592E+01  -2.988707440E+01  -9.805868418E+01   9.965295684E-05
   1.354000000E-02   9.974937041E+01  -1.497661550E+01  -9.806368435E+01   9.974895738E-05
   1.354100000E-02   9.984847673E+01  -9.981520623E-03  -9.803523501E+01   9.984806670E-05
   1.354200000E-02   9.982329016E+01  -4.189045237E+00  -9.801177407E+01   9.982288241E-05
   1.354300000E-02   9.975511295E+01  -1.488568065E+01  -9.799950393E+01   9.975470020E-05
   1.354400000E-02   9.967347425E+01  -2.749210782E+01  -9.800161107E+01   9.967306079E-05
   1.354500000E-02   9.965708509E+01  -2.988818922E+01  -9.801464647E+01   9.965667381E-05
   1.354600000E-02   9.965616289E+01  -2.988791287E+01  -9.802718716E+01   9.965575384E-05
   1.354700000E-02   9.965523979E+01  -2.988763477E+01  -9.803865386E+01   9.965482529E-05
   1.354800000E-02   9.965430445E+01  -2.988735481E+01  -9.804911813E+01   9.965389420E-05
   1.354900000E-02   9.965336626E+01  -2.988707450E+01  -9.805868072E+01   9.965295718E-05
   1.355000000E-02   9.974974793E+01  -1.491849601E+01  -9.806367279E+01   9.974933488E-05
   1.355100000E-02   9.984848036E+01  -9.981520508E-03  -9.803524996E+01   9.984806557E-05
   1.355200000E-02   9.982328838E+01  -4.189772802E+00  -9.801176634E+01   9.982287835E-05
   1.355300000E-02   9.975508117E+01  -1.489073607E+01  -9.799949843E+01   9.975466841E-05
   1.355400000E-02   9.967351843E+01  -2.748543674E+01  -9.800160556E+01   9.967310496E-05
   1.355500000E-02   9.965708474E+01  -2.988818911E+01  -9.801465163E+01   9.965667800E-05
   1.355600000E-02   9.965616323E+01  -2.988791297E+01  -9.802717641E+01   9.965575554E-05
   1.355700000E-02   9.965524029E+01  -2.988763492E+01  -9.803864633E+01   9.965482580E-05
   1.355800000E-02   9.965430425E+01  -2.988735475E+01  -9.804912035E+01   9.965389400E-05
   1.355900000E-02   9.965336590E+01  -2.988707439E+01  -9.805868438E+01   9.965295682E-05
   1.356000000E-02   9.974922281E+01  -1.499933857E+01  -9.806368887E+01   9.974880979E-05
   1.356100000E-02   9.984848118E+01  -9.981520590E-03  -9.803523921E+01   9.984806638E-05
   1.356200000E-02   9.982329806E+01  -4.188273066E+00  -9.801177204E+01   9.982288803E-05
   1.356300000E-02   9.975512538E+01  -1.488393646E+01  -9.799950289E+01   9.975471263E-05
   1.356400000E-02   9.967348667E+01  -2.749039536E+01  -9.800160952E+01   9.967307320E-05
   1.356500000E-02   9.965708755E+01  -2.988818910E+01  -9.801465218E+01   9.965667796E-05
   1.356600000E-02   9.965616287E+01  -2.988791286E+01  -9.802718122E+01   9.965575518E-05
   1.356700000E-02   9.965523993E+01  -2.988763481E+01  -9.803865072E+01   9.965482544E-05
   1.356800000E-02   9.965430459E+01  -2.988735640E+01  -9.804911656E+01   9.965389434E-05
   1.356900000E-02   9.965337260E+01  -2.988707490E+01  -9.805867929E+01   9.965295733E-05
   1.357000000E-02   9.974960414E+01  -1.494122004E+01  -9.806367731E+01   9.974918729E-05
   1.357100000E-02   9.984848200E+01  -9.981520673E-03  -9.803522369E+01   9.984806720E-05
   1.357200000E-02   9.982328370E+01  -4.190662532E+00  -9.801176130E+01   9.982287367E-05
   1.357300000E-02   9.975509359E+01  -1.488898425E+01  -9.799949969E+01   9.975468084E-05
   1.357400000E-02   9.967353085E+01  -2.748371599E+01  -9.800160134E+01   9.967311738E-05
   1.357500000E-02   9.965708773E+01  -2.988818987E+01  -9.801464961E+01   9.965667814E-05
   1.357600000E-02   9.965616957E+01  -2.988791301E+01  -9.802717453E+01   9.965575568E-05
   1.357700000E-02   9.965524116E+01  -2.988763475E+01  -9.803865315E+01   9.965482524E-05
   1.357800000E-02   9.965431043E+01  -2.988735630E+01  -9.804912057E+01   9.965389398E-05
   1.357900000E-02   9.965337367E+01  -2.988707479E+01  -9.805868295E+01   9.965295696E-05
   1.358000000E-02   9.974953022E+01  -1.495260111E+01  -9.806367576E+01   9.974911337E-05
   1.358100000E-02   9.984848086E+01  -9.981520558E-03  -9.803523865E+01   9.984806607E-05
   1.358200000E-02   9.982330368E+01  -4.187489826E+00  -9.801177305E+01   9.982289364E-05
   1.358300000E-02   9.975508460E+01  -1.489047283E+01  -9.799949878E+01   9.975467185E-05
   1.358400000E-02   9.967349909E+01  -2.748866697E+01  -9.800160530E+01   9.967308562E-05
   1.358500000E-02   9.965708737E+01  -2.988818976E+01  -9.801465478E+01   9.965667779E-05
   1.358600000E-02   9.965616921E+01  -2.988791290E+01  -9.802717934E+01   9.965575532E-05
   1.358700000E-02   9.965524150E+01  -2.988763485E+01  -9.803864900E+01   9.965482558E-05
   1.358800000E-02   9.965431094E+01  -2.988735645E+01  -9.804910880E+01   9.965389448E-05
   1.358900000E-02   9.965337347E+01  -2.988707473E+01  -9.805868355E+01   9.965295676E-05
   1.359000000E-02   9.974945655E+01  -1.496394312E+01  -9.806367802E+01   9.974903970E-05
   1.359100000E-02   9.984848168E+01  -9.981520640E-03  -9.803522790E+01   9.984806688E-05
   1.359200000E-02   9.982328931E+01  -4.189874007E+00  -9.801176460E+01   9.982287928E-05
   1.359300000E-02   9.975510602E+01  -1.488721569E+01  -9.799950094E+01   9.975469327E-05
   1.359400000E-02   9.967349391E+01  -2.748954202E+01  -9.800160595E+01   9.967308045E-05
   1.359500000E-02   9.965709265E+01  -2.988819110E+01  -9.801464759E+01   9.965667828E-05
   1.359600000E-02   9.965617114E+01  -2.988791341E+01  -9.802717265E+01   9.965575582E-05
   1.359700000E-02   9.965524130E+01  -2.988763634E+01  -9.803865143E+01   9.965482538E-05
   1.359800000E-02   9.965431058E+01  -2.988735670E+01  -9.804911280E+01   9.965389412E-05
   1.359900000E-02   9.965337381E+01  -2.988707483E+01  -9.805868009E+01   9.965295710E-05
   1.360000000E-02   9.974983405E+01  -1.490582363E+01  -9.806366264E+01   9.974941720E-05
   1.360100000E-02   9.984848054E+01  -9.981520876E-03  -9.803524285E+01   9.984806575E-05
   1.360200000E-02   9.982330929E+01  -4.186696192E+00  -9.801177635E+01   9.982289926E-05
   1.360300000E-02   9.975509704E+01  -1.488869632E+01  -9.799950003E+01   9.975468429E-05
   1.360400000E-02   9.967351151E+01  -2.748692457E+01  -9.800160375E+01   9.967309804E-05
   1.360500000E-02   9.965709229E+01  -2.988819100E+01  -9.801464798E+01   9.965667793E-05
   1.360600000E-02   9.965617078E+01  -2.988791485E+01  -9.802717603E+01   9.965575546E-05
   1.360700000E-02   9.965524164E+01  -2.988763680E+01  -9.803864729E+01   9.965482572E-05
   1.360800000E-02   9.965431037E+01  -2.988735663E+01  -9.804911501E+01   9.965389392E-05
   1.360900000E-02   9.965337345E+01  -2.988707472E+01  -9.805868376E+01   9.965295674E-05
   1.361000000E-02   9.974930895E+01  -1.498666620E+01  -9.806367872E+01   9.974889211E-05
   1.361100000E-02   9.984848136E+01  -9.981520957E-03  -9.803523210E+01   9.984806656E-05
   1.361200000E-02   9.982329493E+01  -4.189075418E+00  -9.801176791E+01   9.982288490E-05
   1.361300000E-02   9.975511845E+01  -1.488543483E+01  -9.799950219E+01   9.975470570E-05
   1.361400000E-02   9.967347975E+01  -2.749186602E+01  -9.800160771E+01   9.967306628E-05
   1.361500000E-02   9.965709278E+01  -2.988819114E+01  -9.801464080E+01   9.965667842E-05
   1.361600000E-02   9.965617058E+01  -2.988791479E+01  -9.802717870E+01   9.965575526E-05
   1.361700000E-02   9.965524128E+01  -2.988763669E+01  -9.803864547E+01   9.965482536E-05
   1.361800000E-02   9.965431072E+01  -2.988735674E+01  -9.804910981E+01   9.965389426E-05
   1.361900000E-02   9.965337395E+01  -2.988707487E+01  -9.805867246E+01   9.965295725E-05
   1.362000000E-02   9.974968646E+01  -1.492854671E+01  -9.806366716E+01   9.974926961E-05
   1.362100000E-02   9.984848022E+01  -9.981520844E-03  -9.803524419E+01   9.984806543E-05
   1.362200000E-02   9.982329087E+01  -4.189784978E+00  -9.801176552E+01   9.982288084E-05
   1.362300000E-02   9.975508666E+01  -1.489046397E+01  -9.799949899E+01   9.975467391E-05
   1.362400000E-02   9.967352392E+01  -2.748516824E+01  -9.800159725E+01   9.967311045E-05
   1.362500000E-02   9.965709243E+01  -2.988819104E+01  -9.801464596E+01   9.965667806E-05
   1.362600000E-02   9.965617092E+01  -2.988791489E+01  -9.802717415E+01   9.965575560E-05
   1.362700000E-02   9.965524178E+01  -2.988763685E+01  -9.803863937E+01   9.965483178E-05
   1.362800000E-02   9.965431052E+01  -2.988735668E+01  -9.804911202E+01   9.965389542E-05
   1.362900000E-02   9.965337359E+01  -2.988707632E+01  -9.805867612E+01   9.965295688E-05
   1.363000000E-02   9.974961292E+01  -1.493986856E+01  -9.806366941E+01   9.974919971E-05
   1.363100000E-02   9.984848104E+01  -9.981520926E-03  -9.803523344E+01   9.984806624E-05
   1.363200000E-02   9.982330054E+01  -4.188268104E+00  -9.801177121E+01   9.982289051E-05
   1.363300000E-02   9.975513087E+01  -1.488364091E+01  -9.799949811E+01   9.975471813E-05
   1.363400000E-02   9.967349216E+01  -2.749010397E+01  -9.800160121E+01   9.967307870E-05
   1.363500000E-02   9.965709239E+01  -2.988819103E+01  -9.801464651E+01   9.965667803E-05
   1.363600000E-02   9.965617056E+01  -2.988791479E+01  -9.802717897E+01   9.965575524E-05
   1.363700000E-02   9.965524142E+01  -2.988763674E+01  -9.803864376E+01   9.965483142E-05
   1.363800000E-02   9.965431086E+01  -2.988735678E+01  -9.804910824E+01   9.965389576E-05
   1.363900000E-02   9.965337339E+01  -2.988707626E+01  -9.805867815E+01   9.965295668E-05
   1.364000000E-02   9.974953886E+01  -1.495126979E+01  -9.806367168E+01   9.974912565E-05
   1.364100000E-02   9.984848186E+01  -9.981521007E-03  -9.803522270E+01   9.984806706E-05
   1.364200000E-02   9.982328618E+01  -4.190641092E+00  -9.801175742E+01   9.982287615E-05
   1.364300000E-02   9.975509909E+01  -1.488866418E+01  -9.799949261E+01   9.975468634E-05
   1.364400000E-02   9.967348697E+01  -2.749096383E+01  -9.800160185E+01   9.967307351E-05
   1.364500000E-02   9.965709257E+01  -2.988819108E+01  -9.801464394E+01   9.965667820E-05
   1.364600000E-02   9.965617106E+01  -2.988791494E+01  -9.802717227E+01   9.965575574E-05
   1.364700000E-02   9.965524122E+01  -2.988763668E+01  -9.803864618E+01   9.965483122E-05
   1.364800000E-02   9.965431050E+01  -2.988735667E+01  -9.804911225E+01   9.965389540E-05
   1.364900000E-02   9.965337373E+01  -2.988707636E+01  -9.805867469E+01   9.965295702E-05
   1.365000000E-02   9.974946845E+01  -1.496269782E+01  -9.806367396E+01   9.974905142E-05
   1.365100000E-02   9.984848072E+01  -9.981521475E-03  -9.803523764E+01   9.984806592E-05
   1.365200000E-02   9.982330616E+01  -4.187452074E+00  -9.801176917E+01   9.982289613E-05
   1.365300000E-02   9.975509010E+01  -1.489013042E+01  -9.799949171E+01   9.975467735E-05
   1.365400000E-02   9.967350458E+01  -2.748832981E+01  -9.800159966E+01   9.967309111E-05
   1.365500000E-02   9.965709221E+01  -2.988819097E+01  -9.801464625E+01   9.965667785E-05
   1.365600000E-02   9.965617070E+01  -2.988791483E+01  -9.802717088E+01   9.965575538E-05
   1.365700000E-02   9.965524156E+01  -2.988763678E+01  -9.803864061E+01   9.965483156E-05
   1.365800000E-02   9.965431100E+01  -2.988735682E+01  -9.804910667E+01   9.965389591E-05
   1.365900000E-02   9.965337353E+01  -2.988707630E+01  -9.805867671E+01   9.965295682E-05
   1.366000000E-02   9.974939508E+01  -1.497399286E+01  -9.806367620E+01   9.974897806E-05
   1.366100000E-02   9.984848440E+01  -9.981521558E-03  -9.803522690E+01   9.984806674E-05
   1.366200000E-02   9.982329180E+01  -4.189821431E+00  -9.801176072E+01   9.982288177E-05
   1.366300000E-02   9.975511152E+01  -1.488685295E+01  -9.799949386E+01   9.975469877E-05
   1.366400000E-02   9.967347282E+01  -2.749325723E+01  -9.800160362E+01   9.967305935E-05
   1.366500000E-02   9.965709271E+01  -2.988819112E+01  -9.801463907E+01   9.965667834E-05
   1.366600000E-02   9.965617050E+01  -2.988791477E+01  -9.802717354E+01   9.965575518E-05
   1.366700000E-02   9.965524120E+01  -2.988763667E+01  -9.803864500E+01   9.965483120E-05
   1.366800000E-02   9.965431064E+01  -2.988735671E+01  -9.804911068E+01   9.965389554E-05
   1.366900000E-02   9.965337387E+01  -2.988707640E+01  -9.805867326E+01   9.965296308E-05
   1.367000000E-02   9.974977260E+01  -1.491587338E+01  -9.806366464E+01   9.974935557E-05
   1.367100000E-02   9.984848326E+01  -9.981521443E-03  -9.803523708E+01   9.984806561E-05
   1.367200000E-02   9.982328773E+01  -4.190521159E+00  -9.801175604E+01   9.982287770E-05
   1.367300000E-02   9.975507973E+01  -1.489186831E+01  -9.799949066E+01   9.975466698E-05
   1.367400000E-02   9.967351700E+01  -2.748654544E+01  -9.800159811E+01   9.967310353E-05
   1.367500000E-02   9.965709235E+01  -2.988819101E+01  -9.801464423E+01   9.965667799E-05
   1.367600000E-02   9.965617084E+01  -2.988791487E+01  -9.802716900E+01   9.965575552E-05
   1.367700000E-02   9.965524170E+01  -2.988763682E+01  -9.803863890E+01   9.965483170E-05
   1.367800000E-02   9.965431044E+01  -2.988735665E+01  -9.804911290E+01   9.965389534E-05
   1.367900000E-02   9.965337351E+01  -2.988707629E+01  -9.805867692E+01   9.965296272E-05
   1.368000000E-02   9.974924748E+01  -1.499671594E+01  -9.806368072E+01   9.974883046E-05
   1.368100000E-02   9.984848408E+01  -9.981521525E-03  -9.803522633E+01   9.984806642E-05
   1.368200000E-02   9.982329741E+01  -4.188994056E+00  -9.801176174E+01   9.982288738E-05
   1.368300000E-02   9.975512394E+01  -1.488503175E+01  -9.799949512E+01   9.975471119E-05
   1.368400000E-02   9.967348524E+01  -2.749146781E+01  -9.800160207E+01   9.967307177E-05
   1.368500000E-02   9.965709285E+01  -2.988819116E+01  -9.801463705E+01   9.965667848E-05
   1.368600000E-02   9.965617064E+01  -2.988791481E+01  -9.802717166E+01   9.965575532E-05
   1.368700000E-02   9.965524134E+01  -2.988763671E+01  -9.803864329E+01   9.965483134E-05
   1.368800000E-02   9.965431078E+01  -2.988735676E+01  -9.804910911E+01   9.965389568E-05
   1.368900000E-02   9.965337402E+01  -2.988707644E+01  -9.805867183E+01   9.965296322E-05
   1.369000000E-02   9.974962500E+01  -1.493859645E+01  -9.806366534E+01   9.974920797E-05
   1.369100000E-02   9.984848367E+01  -9.981521485E-03  -9.803523164E+01   9.984806602E-05
   1.369200000E-02   9.982329335E+01  -4.189689603E+00  -9.801175935E+01   9.982288332E-05
   1.369300000E-02   9.975509216E+01  -1.489004167E+01  -9.799949191E+01   9.975467941E-05
   1.369400000E-02   9.967352942E+01  -2.748475221E+01  -9.800159656E+01   9.967311594E-05
   1.369500000E-02   9.965709249E+01  -2.988819106E+01  -9.801464222E+01   9.965667813E-05
   1.369600000E-02   9.965617098E+01  -2.988791491E+01  -9.802716711E+01   9.965575566E-05
   1.369700000E-02   9.965524735E+01  -2.988763665E+01  -9.803864572E+01   9.965483114E-05
   1.369800000E-02   9.965431184E+01  -2.988735665E+01  -9.804911312E+01   9.965389532E-05
   1.369900000E-02   9.965337365E+01  -2.988707633E+01  -9.805867549E+01   9.965296286E-05
   1.370000000E-02   9.974955115E+01  -1.494996526E+01  -9.806366761E+01   9.974913413E-05
   1.370100000E-02   9.984848376E+01  -9.981521493E-03  -9.803523053E+01   9.984806610E-05
   1.370200000E-02   9.982330303E+01  -4.188160305E+00  -9.801176504E+01   9.982289299E-05
   1.370300000E-02   9.975508317E+01  -1.489149599E+01  -9.799949101E+01   9.975467041E-05
   1.370400000E-02   9.967349766E+01  -2.748966885E+01  -9.800159785E+01   9.967308419E-05
   1.370500000E-02   9.965709213E+01  -2.988819095E+01  -9.801464738E+01   9.965667777E-05
   1.370600000E-02   9.965617062E+01  -2.988791481E+01  -9.802717193E+01   9.965575530E-05
   1.370700000E-02   9.965524769E+01  -2.988763676E+01  -9.803864157E+01   9.965483148E-05
   1.370800000E-02   9.965431235E+01  -2.988735835E+01  -9.804910135E+01   9.965390174E-05
   1.370900000E-02   9.965337345E+01  -2.988707663E+01  -9.805867609E+01   9.965296402E-05
   1.371000000E-02   9.974947740E+01  -1.496132048E+01  -9.806366987E+01   9.974906037E-05
   1.371100000E-02   9.984848457E+01  -9.981521575E-03  -9.803521978E+01   9.984806692E-05
   1.371200000E-02   9.982328866E+01  -4.190521101E+00  -9.801175659E+01   9.982287863E-05
   1.371300000E-02   9.975510459E+01  -1.488820579E+01  -9.799949316E+01   9.975469183E-05
   1.371400000E-02   9.967349248E+01  -2.749051189E+01  -9.800159850E+01   9.967307901E-05
   1.371500000E-02   9.965709263E+01  -2.988819110E+01  -9.801464020E+01   9.965667827E-05
   1.371600000E-02   9.965617112E+01  -2.988791496E+01  -9.802716523E+01   9.965575580E-05
   1.371700000E-02   9.965524749E+01  -2.988763670E+01  -9.803864400E+01   9.965483128E-05
   1.371800000E-02   9.965431198E+01  -2.988735824E+01  -9.804910535E+01   9.965390138E-05
   1.371900000E-02   9.965337379E+01  -2.988707673E+01  -9.805867263E+01   9.965296436E-05
   1.372000000E-02   9.974985492E+01  -1.490320099E+01  -9.806365449E+01   9.974943789E-05
   1.372100000E-02   9.984848820E+01  -9.981521461E-03  -9.803523474E+01   9.984807033E-05
   1.372200000E-02   9.982331094E+01  -4.187320184E+00  -9.801176834E+01   9.982289570E-05
   1.372300000E-02   9.975509560E+01  -1.488965420E+01  -9.799949226E+01   9.975468067E-05
   1.372400000E-02   9.967351007E+01  -2.748786227E+01  -9.800159630E+01   9.967309660E-05
   1.372500000E-02   9.965709227E+01  -2.988819170E+01  -9.801464536E+01   9.965667791E-05
   1.372600000E-02   9.965617076E+01  -2.988791485E+01  -9.802717005E+01   9.965575544E-05
   1.372700000E-02   9.965524783E+01  -2.988763680E+01  -9.803863985E+01   9.965483162E-05
   1.372800000E-02   9.965431178E+01  -2.988735818E+01  -9.804910757E+01   9.965390118E-05
   1.372900000E-02   9.965337343E+01  -2.988707662E+01  -9.805867629E+01   9.965296400E-05
   1.373000000E-02   9.974932980E+01  -1.498404356E+01  -9.806367057E+01   9.974891278E-05
   1.373100000E-02   9.984848902E+01  -9.981521543E-03  -9.803522399E+01   9.984807115E-05
   1.373200000E-02   9.982329657E+01  -4.189678007E+00  -9.801175989E+01   9.982288134E-05
   1.373300000E-02   9.975511701E+01  -1.488636184E+01  -9.799949442E+01   9.975470208E-05
   1.373400000E-02   9.967347831E+01  -2.749277443E+01  -9.800160026E+01   9.967306485E-05
   1.373500000E-02   9.965709277E+01  -2.988819185E+01  -9.801463818E+01   9.965667841E-05
   1.373600000E-02   9.965617056E+01  -2.988791479E+01  -9.802717271E+01   9.965575524E-05
   1.373700000E-02   9.965524747E+01  -2.988763669E+01  -9.803864424E+01   9.965483126E-05
   1.373800000E-02   9.965431213E+01  -2.988735828E+01  -9.804910378E+01   9.965390152E-05
   1.373900000E-02   9.965337394E+01  -2.988707678E+01  -9.805867120E+01   9.965296451E-05
   1.374000000E-02   9.974970732E+01  -1.492592407E+01  -9.806365901E+01   9.974929029E-05
   1.374100000E-02   9.984848788E+01  -9.981521429E-03  -9.803523894E+01   9.984807001E-05
   1.374200000E-02   9.982329251E+01  -4.190366715E+00  -9.801175750E+01   9.982287728E-05
   1.374300000E-02   9.975508523E+01  -1.489136194E+01  -9.799949121E+01   9.975467029E-05
   1.374400000E-02   9.967352249E+01  -2.748604739E+01  -9.800159475E+01   9.967310902E-05
   1.374500000E-02   9.965709241E+01  -2.988819175E+01  -9.801464334E+01   9.965667805E-05
   1.374600000E-02   9.965617090E+01  -2.988791489E+01  -9.802716816E+01   9.965575558E-05
   1.374700000E-02   9.965524797E+01  -2.988763684E+01  -9.803863814E+01   9.965483176E-05
   1.374800000E-02   9.965431193E+01  -2.988735822E+01  -9.804910600E+01   9.965390132E-05
   1.374900000E-02   9.965337357E+01  -2.988707667E+01  -9.805866866E+01   9.965296414E-05
   1.375000000E-02   9.974963767E+01  -1.493723366E+01  -9.806366126E+01   9.974921683E-05
   1.375100000E-02   9.984848870E+01  -9.981521511E-03  -9.803522819E+01   9.984807083E-05
   1.375200000E-02   9.982330219E+01  -4.188829545E+00  -9.801176320E+01   9.982288696E-05
   1.375300000E-02   9.975512944E+01  -1.488451027E+01  -9.799949567E+01   9.975471450E-05
   1.375400000E-02   9.967349073E+01  -2.749095574E+01  -9.800159871E+01   9.967307726E-05
   1.375500000E-02   9.965709522E+01  -2.988819173E+01  -9.801464389E+01   9.965667801E-05
   1.375600000E-02   9.965617054E+01  -2.988791478E+01  -9.802717298E+01   9.965575522E-05
   1.375700000E-02   9.965524761E+01  -2.988763673E+01  -9.803863632E+01   9.965483140E-05
   1.375800000E-02   9.965431227E+01  -2.988735833E+01  -9.804910079E+01   9.965390166E-05
   1.375900000E-02   9.965338028E+01  -2.988707682E+01  -9.805866356E+01   9.965296465E-05
   1.376000000E-02   9.974956354E+01  -1.494864715E+01  -9.806366353E+01   9.974914269E-05
   1.376100000E-02   9.984848952E+01  -9.981521593E-03  -9.803521458E+01   9.984807165E-05
   1.376200000E-02   9.982328782E+01  -4.191183758E+00  -9.801175475E+01   9.982287259E-05
   1.376300000E-02   9.975509766E+01  -1.488950670E+01  -9.799949247E+01   9.975467763E-05
   1.376400000E-02   9.967353491E+01  -2.748422555E+01  -9.800159320E+01   9.967312144E-05
   1.376500000E-02   9.965709540E+01  -2.988819298E+01  -9.801463655E+01   9.965667819E-05
   1.376600000E-02   9.965617104E+01  -2.988791529E+01  -9.802716485E+01   9.965575572E-05
   1.376700000E-02   9.965524741E+01  -2.988763822E+01  -9.803863875E+01   9.965483120E-05
   1.376800000E-02   9.965431190E+01  -2.988735857E+01  -9.804910480E+01   9.965390130E-05
   1.376900000E-02   9.965337992E+01  -2.988707671E+01  -9.805866723E+01   9.965296428E-05
   1.377000000E-02   9.974948939E+01  -1.496006292E+01  -9.806366580E+01   9.974906854E-05
   1.377100000E-02   9.984848838E+01  -9.981521479E-03  -9.803522953E+01   9.984807051E-05
   1.377200000E-02   9.982330780E+01  -4.187976387E+00  -9.801176650E+01   9.982289257E-05
   1.377300000E-02   9.975508867E+01  -1.489094672E+01  -9.799949156E+01   9.975466864E-05
   1.377400000E-02   9.967350315E+01  -2.748913008E+01  -9.800159716E+01   9.967308968E-05
   1.377500000E-02   9.965709504E+01  -2.988819287E+01  -9.801464170E+01   9.965667783E-05
   1.377600000E-02   9.965617068E+01  -2.988791673E+01  -9.802716967E+01   9.965575536E-05
   1.377700000E-02   9.965524775E+01  -2.988763868E+01  -9.803863461E+01   9.965483154E-05
   1.377800000E-02   9.965431861E+01  -2.988735873E+01  -9.804909923E+01   9.965390180E-05
   1.377900000E-02   9.965338114E+01  -2.988707665E+01  -9.805866925E+01   9.965296408E-05
   1.378000000E-02   9.974941594E+01  -1.497137023E+01  -9.806366805E+01   9.974899510E-05
   1.378100000E-02   9.984848920E+01  -9.981521561E-03  -9.803521878E+01   9.984807133E-05
   1.378200000E-02   9.982329344E+01  -4.190327954E+00  -9.801175805E+01   9.982287821E-05
   1.378300000E-02   9.975511008E+01  -1.488764397E+01  -9.799949372E+01   9.975469005E-05
   1.378400000E-02   9.967347139E+01  -2.749403270E+01  -9.800160113E+01   9.967305792E-05
   1.378500000E-02   9.965709555E+01  -2.988819302E+01  -9.801463453E+01   9.965667833E-05
   1.378600000E-02   9.965617669E+01  -2.988791667E+01  -9.802717234E+01   9.965575516E-05
   1.378700000E-02   9.965524881E+01  -2.988763857E+01  -9.803863899E+01   9.965483118E-05
   1.378800000E-02   9.965431825E+01  -2.988735862E+01  -9.804910323E+01   9.965390144E-05
   1.378900000E-02   9.965338149E+01  -2.988707675E+01  -9.805866579E+01   9.965296443E-05
   1.379000000E-02   9.974979345E+01  -1.491325074E+01  -9.806365649E+01   9.974937261E-05
   1.379100000E-02   9.984848806E+01  -9.981521447E-03  -9.803523373E+01   9.984807019E-05
   1.379200000E-02   9.982328937E+01  -4.191011152E+00  -9.801175566E+01   9.982287414E-05
   1.379300000E-02   9.975507830E+01  -1.489263615E+01  -9.799948517E+01   9.975465827E-05
   1.379400000E-02   9.967351556E+01  -2.748729870E+01  -9.800159561E+01   9.967310209E-05
   1.379500000E-02   9.965709518E+01  -2.988819292E+01  -9.801463969E+01   9.965667797E-05
   1.379600000E-02   9.965617703E+01  -2.988791677E+01  -9.802716779E+01   9.965575550E-05
   1.379700000E-02   9.965524932E+01  -2.988763872E+01  -9.803863289E+01   9.965483168E-05
   1.379800000E-02   9.965431805E+01  -2.988735856E+01  -9.804910545E+01   9.965390124E-05
   1.379900000E-02   9.965338112E+01  -2.988707664E+01  -9.805866945E+01   9.965296406E-05
   1.380000000E-02   9.974926835E+01  -1.499409331E+01  -9.806367257E+01   9.974884750E-05
   1.380100000E-02   9.984848888E+01  -9.981521529E-03  -9.803522298E+01   9.984807101E-05
   1.380200000E-02   9.982329905E+01  -4.189467788E+00  -9.801175602E+01   9.982288382E-05
   1.380300000E-02   9.975512251E+01  -1.488577537E+01  -9.799948734E+01   9.975470248E-05
   1.380400000E-02   9.967348380E+01  -2.749219751E+01  -9.800159462E+01   9.967307034E-05
   1.380500000E-02   9.965710046E+01  -2.988819307E+01  -9.801463251E+01   9.965667847E-05
   1.380600000E-02   9.965617825E+01  -2.988791671E+01  -9.802717045E+01   9.965575531E-05
   1.380700000E-02   9.965524896E+01  -2.988763862E+01  -9.803863728E+01   9.965483132E-05
   1.380800000E-02   9.965431839E+01  -2.988735866E+01  -9.804910167E+01   9.965390158E-05
   1.380900000E-02   9.965338163E+01  -2.988707680E+01  -9.805866436E+01   9.965296457E-05
   1.381000000E-02   9.974964585E+01  -1.493597382E+01  -9.806366101E+01   9.974922501E-05
   1.381100000E-02   9.984848848E+01  -9.981521489E-03  -9.803522829E+01   9.984807060E-05
   1.381200000E-02   9.982329499E+01  -4.190148138E+00  -9.801175363E+01   9.982287976E-05
   1.381300000E-02   9.975509072E+01  -1.489076403E+01  -9.799948414E+01   9.975467069E-05
   1.381400000E-02   9.967352798E+01  -2.748546093E+01  -9.800158911E+01   9.967311451E-05
   1.381500000E-02   9.965710010E+01  -2.988819296E+01  -9.801463767E+01   9.965667811E-05
   1.381600000E-02   9.965617859E+01  -2.988791682E+01  -9.802716590E+01   9.965575565E-05
   1.381700000E-02   9.965524875E+01  -2.988763856E+01  -9.803863971E+01   9.965483112E-05
   1.381800000E-02   9.965431803E+01  -2.988735855E+01  -9.804910567E+01   9.965390122E-05
   1.381900000E-02   9.965338126E+01  -2.988707669E+01  -9.805866802E+01   9.965296420E-05
   1.382000000E-02   9.974957209E+01  -1.494733037E+01  -9.806366327E+01   9.974915488E-05
   1.382100000E-02   9.984848856E+01  -9.981521497E-03  -9.803522719E+01   9.984807069E-05
   1.382200000E-02   9.982330467E+01  -4.188603931E+00  -9.801175932E+01   9.982288944E-05
   1.382300000E-02   9.975508173E+01  -1.489219891E+01  -9.799948323E+01   9.975466170E-05
   1.382400000E-02   9.967349622E+01  -2.749035783E+01  -9.800159307E+01   9.967308275E-05
   1.382500000E-02   9.965709975E+01  -2.988819285E+01  -9.801464283E+01   9.965667775E-05
   1.382600000E-02   9.965617823E+01  -2.988791671E+01  -9.802717072E+01   9.965575529E-05
   1.382700000E-02   9.965524910E+01  -2.988763866E+01  -9.803863557E+01   9.965483146E-05
   1.382800000E-02   9.965431853E+01  -2.988735870E+01  -9.804910010E+01   9.965390172E-05
   1.382900000E-02   9.965338106E+01  -2.988707818E+01  -9.805867005E+01   9.965296400E-05
   1.383000000E-02   9.974949826E+01  -1.495869689E+01  -9.806366553E+01   9.974908106E-05
   1.383100000E-02   9.984848938E+01  -9.981521579E-03  -9.803521644E+01   9.984807150E-05
   1.383200000E-02   9.982329030E+01  -4.190950561E+00  -9.801175087E+01   9.982287507E-05
[...]
   2.478400000E-02   1.028464752E+02  -3.084471981E+01  -9.194017196E+01   2.418880727E+01
   2.478500000E-02   1.028502333E+02  -3.084584678E+01  -9.193226980E+01   2.418793315E+01
   2.478600000E-02   1.028539884E+02  -3.084697376E+01  -9.192437298E+01   2.418707294E+01
   2.478700000E-02   1.028577460E+02  -3.084810086E+01  -9.191646816E+01   2.418622498E+01
   2.478800000E-02   1.028615009E+02  -3.084922789E+01  -9.190856389E+01   2.418539235E+01
   2.478900000E-02   1.028652536E+02  -3.085035353E+01  -9.190066708E+01   2.418457411E+01
   2.479000000E-02   1.028690065E+02  -3.085147839E+01  -9.189277401E+01   2.418376936E+01
   2.479100000E-02   1.028727591E+02  -3.085260278E+01  -9.188487582E+01   2.418298026E+01
   2.479200000E-02   1.028765066E+02  -3.085372682E+01  -9.187698884E+01   2.418220461E+01
   2.479300000E-02   1.028802571E+02  -3.085485188E+01  -9.186909660E+01   2.418144165E+01
   2.479400000E-02   1.028840045E+02  -3.085597561E+01  -9.186120208E+01   2.418069338E+01
   2.479500000E-02   1.028877545E+02  -3.085710024E+01  -9.185330260E+01   2.417995807E+01
   2.479600000E-02   1.028915017E+02  -3.085822402E+01  -9.184540595E+01   2.417923667E+01
   2.479700000E-02   1.028952469E+02  -3.085934718E+01  -9.183751677E+01   2.417852903E+01
   2.479800000E-02   1.028989920E+02  -3.086047034E+01  -9.182962987E+01   2.417783607E+01
   2.479900000E-02   1.029027318E+02  -3.086159216E+01  -9.182174297E+01   2.417715702E+01
   2.480000000E-02   1.029064797E+02  -3.086271501E+01  -9.181385248E+01   2.417648778E+01
   2.480100000E-02   1.029102155E+02  -3.086383646E+01  -9.180596640E+01   2.417583688E+01
   2.480200000E-02   1.029139568E+02  -3.086495929E+01  -9.179807199E+01   2.417519722E+01
   2.480300000E-02   1.029176964E+02  -3.086608116E+01  -9.179018604E+01   2.417457123E+01
   2.480400000E-02   1.029214339E+02  -3.086720242E+01  -9.178230143E+01   2.417395893E+01
   2.480500000E-02   1.029251714E+02  -3.086832233E+01  -9.177441987E+01   2.417335998E+01
   2.480600000E-02   1.029289089E+02  -3.086944301E+01  -9.176654060E+01   2.417277438E+01
   2.480700000E-02   1.029326411E+02  -3.087056293E+01  -9.175866133E+01   2.417220212E+01
   2.480800000E-02   1.029363763E+02  -3.087168227E+01  -9.175078206E+01   2.417164320E+01
   2.480900000E-02   1.029401085E+02  -3.087280162E+01  -9.174290279E+01   2.417109630E+01
   2.481000000E-02   1.029438388E+02  -3.087392103E+01  -9.173501841E+01   2.417056196E+01
   2.481100000E-02   1.029475742E+02  -3.087504044E+01  -9.172713459E+01   2.417004197E+01
   2.481200000E-02   1.029513050E+02  -3.087615983E+01  -9.171925565E+01   2.416953357E+01
   2.481300000E-02   1.029550349E+02  -3.087727784E+01  -9.171137866E+01   2.416903893E+01
   2.481400000E-02   1.029587595E+02  -3.087839528E+01  -9.170350473E+01   2.416855687E+01
   2.481500000E-02   1.029624870E+02  -3.087951271E+01  -9.169563309E+01   2.416808624E+01
   2.481600000E-02   1.029662116E+02  -3.088063015E+01  -9.168776145E+01   2.416762839E+01
   2.481700000E-02   1.029699338E+02  -3.088174759E+01  -9.167988980E+01   2.416718389E+01
   2.481800000E-02   1.029736609E+02  -3.088286515E+01  -9.167200790E+01   2.416675083E+01
   2.481900000E-02   1.029773853E+02  -3.088398130E+01  -9.166413186E+01   2.416632956E+01
   2.482000000E-02   1.029811061E+02  -3.088509662E+01  -9.165626855E+01   2.416592023E+01
   2.482100000E-02   1.029848291E+02  -3.088621267E+01  -9.164839992E+01   2.416552437E+01
   2.482200000E-02   1.029885467E+02  -3.088732789E+01  -9.164053219E+01   2.416514024E+01
   2.482300000E-02   1.029922613E+02  -3.088844342E+01  -9.163266588E+01   2.416476820E+01
   2.482400000E-02   1.029959812E+02  -3.088955896E+01  -9.162480187E+01   2.416440684E+01
   2.482500000E-02   1.029996982E+02  -3.089067315E+01  -9.161693785E+01   2.416405768E+01
   2.482600000E-02   1.030034176E+02  -3.089178823E+01  -9.160906358E+01   2.416372009E+01
   2.482700000E-02   1.030071343E+02  -3.089290247E+01  -9.160119518E+01   2.416339288E+01
   2.482800000E-02   1.030108436E+02  -3.089401610E+01  -9.159333650E+01   2.416307806E+01
   2.482900000E-02   1.030145559E+02  -3.089512972E+01  -9.158547478E+01   2.416277391E+01
   2.483000000E-02   1.030182703E+02  -3.089624265E+01  -9.157761023E+01   2.416247927E+01
   2.483100000E-02   1.030219803E+02  -3.089735433E+01  -9.156975752E+01   2.416219885E+01
   2.483200000E-02   1.030256868E+02  -3.089846678E+01  -9.156190332E+01   2.416192838E+01
   2.483300000E-02   1.030293987E+02  -3.089958052E+01  -9.155403669E+01   2.416166775E+01
   2.483400000E-02   1.030331077E+02  -3.090069286E+01  -9.154617592E+01   2.416141819E+01
   2.483500000E-02   1.030368094E+02  -3.090180324E+01  -9.153831953E+01   2.416117888E+01
   2.483600000E-02   1.030405141E+02  -3.090291438E+01  -9.153046848E+01   2.416095044E+01
   2.483700000E-02   1.030442158E+02  -3.090402477E+01  -9.152261438E+01   2.416073210E+01
   2.483800000E-02   1.030479205E+02  -3.090513591E+01  -9.151476333E+01   2.416052463E+01
   2.483900000E-02   1.030516221E+02  -3.090624629E+01  -9.150691457E+01   2.416032593E+01
   2.484000000E-02   1.030553242E+02  -3.090735617E+01  -9.149906226E+01   2.416013624E+01
   2.484100000E-02   1.030590262E+02  -3.090846604E+01  -9.149120515E+01   2.415995925E+01
   2.484200000E-02   1.030627271E+02  -3.090957588E+01  -9.148335368E+01   2.415979147E+01
   2.484300000E-02   1.030664211E+02  -3.091068436E+01  -9.147550492E+01   2.415963283E+01
   2.484400000E-02   1.030701182E+02  -3.091179226E+01  -9.146766150E+01   2.415948314E+01
   2.484500000E-02   1.030738122E+02  -3.091290016E+01  -9.145981503E+01   2.415934298E+01
   2.484600000E-02   1.030775040E+02  -3.091400807E+01  -9.145197160E+01   2.415921102E+01
   2.484700000E-02   1.030812011E+02  -3.091511597E+01  -9.144413047E+01   2.415908936E+01
   2.484800000E-02   1.030848951E+02  -3.091622387E+01  -9.143628934E+01   2.415897646E+01
   2.484900000E-02   1.030885863E+02  -3.091733189E+01  -9.142843798E+01   2.415887240E+01
   2.485000000E-02   1.030922748E+02  -3.091843829E+01  -9.142059471E+01   2.415877626E+01
   2.485100000E-02   1.030959686E+02  -3.091954403E+01  -9.141276111E+01   2.415868975E+01
   2.485200000E-02   1.030996559E+02  -3.092065049E+01  -9.140491783E+01   2.415861263E+01
   2.485300000E-02   1.031033401E+02  -3.092175649E+01  -9.139708204E+01   2.415854227E+01
   2.485400000E-02   1.031070242E+02  -3.092286249E+01  -9.138924320E+01   2.415848029E+01
   2.485500000E-02   1.031107083E+02  -3.092396715E+01  -9.138140740E+01   2.415842651E+01
   2.485600000E-02   1.031143924E+02  -3.092507124E+01  -9.137357390E+01   2.415838169E+01
   2.485700000E-02   1.031180813E+02  -3.092617810E+01  -9.136573018E+01   2.415834369E+01
   2.485800000E-02   1.031217675E+02  -3.092728204E+01  -9.135789764E+01   2.415831279E+01
   2.485900000E-02   1.031254463E+02  -3.092838556E+01  -9.135006642E+01   2.415828952E+01
   2.486000000E-02   1.031291228E+02  -3.092948887E+01  -9.134223741E+01   2.415827465E+01
   2.486100000E-02   1.031328067E+02  -3.093059228E+01  -9.133440314E+01   2.415826750E+01
   2.486200000E-02   1.031364833E+02  -3.093169592E+01  -9.132657887E+01   2.415826607E+01
   2.486300000E-02   1.031401598E+02  -3.093279868E+01  -9.131875300E+01   2.415827274E+01
   2.486400000E-02   1.031438358E+02  -3.093390230E+01  -9.131091691E+01   2.415828629E+01
   2.486500000E-02   1.031475120E+02  -3.093500376E+01  -9.130308667E+01   2.415830556E+01
   2.486600000E-02   1.031511831E+02  -3.093610537E+01  -9.129526079E+01   2.415833188E+01
   2.486700000E-02   1.031548573E+02  -3.093720755E+01  -9.128744025E+01   2.415836583E+01
   2.486800000E-02   1.031585285E+02  -3.093830840E+01  -9.127961666E+01   2.415840473E+01
   2.486900000E-02   1.031621973E+02  -3.093940868E+01  -9.127179612E+01   2.415845011E+01
   2.487000000E-02   1.031658712E+02  -3.094050996E+01  -9.126397205E+01   2.415850259E+01
   2.487100000E-02   1.031695355E+02  -3.094160925E+01  -9.125615744E+01   2.415856096E+01
   2.487200000E-02   1.031732087E+02  -3.094270960E+01  -9.124833118E+01   2.415862428E+01
   2.487300000E-02   1.031768743E+02  -3.094380992E+01  -9.124050856E+01   2.415869316E+01
   2.487400000E-02   1.031805408E+02  -3.094490886E+01  -9.123269566E+01   2.415876906E+01
   2.487500000E-02   1.031842043E+02  -3.094600723E+01  -9.122487969E+01   2.415884991E+01
   2.487600000E-02   1.031878656E+02  -3.094710560E+01  -9.121706678E+01   2.415893458E+01
   2.487700000E-02   1.031915268E+02  -3.094820397E+01  -9.120925082E+01   2.415902573E+01
   2.487800000E-02   1.031951880E+02  -3.094930234E+01  -9.120143791E+01   2.415912183E+01
   2.487900000E-02   1.031988493E+02  -3.095040070E+01  -9.119362729E+01   2.415922308E+01
   2.488000000E-02   1.032025056E+02  -3.095149856E+01  -9.118581315E+01   2.415932842E+01
   2.488100000E-02   1.032061694E+02  -3.095259579E+01  -9.117800183E+01   2.415943981E+01
   2.488200000E-02   1.032098268E+02  -3.095369271E+01  -9.117018850E+01   2.415955489E+01
   2.488300000E-02   1.032134804E+02  -3.095478917E+01  -9.116238322E+01   2.415967388E+01
   2.488400000E-02   1.032171340E+02  -3.095588563E+01  -9.115457489E+01   2.415979802E+01
   2.488500000E-02   1.032207876E+02  -3.095698076E+01  -9.114676960E+01   2.415992654E+01
   2.488600000E-02   1.032244412E+02  -3.095807665E+01  -9.113896661E+01   2.416005755E+01
   2.488700000E-02   1.032280948E+02  -3.095917178E+01  -9.113116362E+01   2.416019312E+01
   2.488800000E-02   1.032317478E+02  -3.096026776E+01  -9.112335045E+01   2.416033327E+01
   2.488900000E-02   1.032354012E+02  -3.096136292E+01  -9.111554309E+01   2.416047713E+01
   2.489000000E-02   1.032390480E+02  -3.096245670E+01  -9.110774994E+01   2.416062355E+01
   2.489100000E-02   1.032426947E+02  -3.096355057E+01  -9.109994904E+01   2.416077427E+01
   2.489200000E-02   1.032463414E+02  -3.096464335E+01  -9.109214937E+01   2.416092811E+01
   2.489300000E-02   1.032499874E+02  -3.096573733E+01  -9.108435171E+01   2.416108523E+01
   2.489400000E-02   1.032536333E+02  -3.096683055E+01  -9.107655634E+01   2.416124484E+01
   2.489500000E-02   1.032572740E+02  -3.096792320E+01  -9.106876098E+01   2.416140769E+01
   2.489600000E-02   1.032609224E+02  -3.096901594E+01  -9.106095544E+01   2.416157323E+01
   2.489700000E-02   1.032645651E+02  -3.097010862E+01  -9.105316107E+01   2.416174189E+01
   2.489800000E-02   1.032682034E+02  -3.097120127E+01  -9.104536799E+01   2.416191294E+01
   2.489900000E-02   1.032718418E+02  -3.097229258E+01  -9.103757796E+01   2.416208723E+01
   2.490000000E-02   1.032754836E+02  -3.097338337E+01  -9.102978212E+01   2.416226203E+01
   2.490100000E-02   1.032791183E+02  -3.097447408E+01  -9.102200087E+01   2.416244096E+01
   2.490200000E-02   1.032827515E+02  -3.097556481E+01  -9.101421474E+01   2.416262001E+01
   2.490300000E-02   1.032863923E+02  -3.097665563E+01  -9.100641684E+01   2.416280217E+01
   2.490400000E-02   1.032900273E+02  -3.097774641E+01  -9.099862476E+01   2.416298667E+01
   2.490500000E-02   1.032936634E+02  -3.097883582E+01  -9.099084236E+01   2.416317297E+01
   2.490600000E-02   1.032972964E+02  -3.097992465E+01  -9.098305691E+01   2.416335984E+01
   2.490700000E-02   1.033009271E+02  -3.098101349E+01  -9.097527451E+01   2.416354805E+01
   2.490800000E-02   1.033045525E+02  -3.098210232E+01  -9.096749439E+01   2.416373817E+01
   2.490900000E-02   1.033081809E+02  -3.098319116E+01  -9.095971428E+01   2.416393019E+01
   2.491000000E-02   1.033118128E+02  -3.098427947E+01  -9.095192838E+01   2.416412351E+01
   2.491100000E-02   1.033154422E+02  -3.098536835E+01  -9.094414283E+01   2.416431743E+01
   2.491200000E-02   1.033190668E+02  -3.098645644E+01  -9.093635946E+01   2.416451158E+01
   2.491300000E-02   1.033226953E+02  -3.098754337E+01  -9.092858469E+01   2.416470742E+01
   2.491400000E-02   1.033263207E+02  -3.098863030E+01  -9.092080686E+01   2.416490383E+01
   2.491500000E-02   1.033299438E+02  -3.098971589E+01  -9.091303209E+01   2.416510158E+01
   2.491600000E-02   1.033335615E+02  -3.099080225E+01  -9.090525960E+01   2.416529989E+01
   2.491700000E-02   1.033371823E+02  -3.099188784E+01  -9.089748712E+01   2.416549821E+01
   2.491800000E-02   1.033408054E+02  -3.099297419E+01  -9.088971464E+01   2.416569653E+01
   2.491900000E-02   1.033444279E+02  -3.099406120E+01  -9.088193202E+01   2.416589510E+01
   2.492000000E-02   1.033480424E+02  -3.099514605E+01  -9.087416276E+01   2.416609483E+01
   2.492100000E-02   1.033516599E+02  -3.099622963E+01  -9.086639302E+01   2.416629381E+01
   2.492200000E-02   1.033552763E+02  -3.099731496E+01  -9.085862319E+01   2.416649207E+01
   2.492300000E-02   1.033588917E+02  -3.099839865E+01  -9.085085834E+01   2.416669172E+01
   2.492400000E-02   1.033625072E+02  -3.099948310E+01  -9.084309348E+01   2.416689061E+01
   2.492500000E-02   1.033661173E+02  -3.100056678E+01  -9.083532862E+01   2.416708893E+01
   2.492600000E-02   1.033697305E+02  -3.100164990E+01  -9.082756377E+01   2.416728724E+01
   2.492700000E-02   1.033733453E+02  -3.100273442E+01  -9.081978878E+01   2.416748448E+01
   2.492800000E-02   1.033769552E+02  -3.100381681E+01  -9.081202493E+01   2.416768100E+01
   2.492900000E-02   1.033805630E+02  -3.100489935E+01  -9.080426236E+01   2.416787741E+01
   2.493000000E-02   1.033841732E+02  -3.100598112E+01  -9.079650732E+01   2.416807264E+01
   2.493100000E-02   1.033877809E+02  -3.100706306E+01  -9.078874459E+01   2.416826747E+01
   2.493200000E-02   1.033913865E+02  -3.100814354E+01  -9.078098839E+01   2.416846016E+01
   2.493300000E-02   1.033949890E+02  -3.100922475E+01  -9.077323116E+01   2.416865275E+01
   2.493400000E-02   1.033985993E+02  -3.101030736E+01  -9.076546381E+01   2.416884427E+01
   2.493500000E-02   1.034022038E+02  -3.101138784E+01  -9.075770225E+01   2.416903506E+01
   2.493600000E-02   1.034058040E+02  -3.101246847E+01  -9.074995036E+01   2.416922441E+01
   2.493700000E-02   1.034094042E+02  -3.101354834E+01  -9.074219542E+01   2.416941186E+01
   2.493800000E-02   1.034130044E+02  -3.101462764E+01  -9.073444353E+01   2.416959740E+01
   2.493900000E-02   1.034166046E+02  -3.101570694E+01  -9.072669393E+01   2.416978237E+01
   2.494000000E-02   1.034202045E+02  -3.101678762E+01  -9.071893626E+01   2.416996671E+01
   2.494100000E-02   1.034238001E+02  -3.101786570E+01  -9.071119313E+01   2.417014778E+01
   2.494200000E-02   1.034273970E+02  -3.101894492E+01  -9.070343502E+01   2.417032779E+01
   2.494300000E-02   1.034309916E+02  -3.102002291E+01  -9.069568643E+01   2.417050446E+01
   2.494400000E-02   1.034345895E+02  -3.102110030E+01  -9.068793912E+01   2.417067990E+01
   2.494500000E-02   1.034381844E+02  -3.102217770E+01  -9.068019486E+01   2.417085400E+01
   2.494600000E-02   1.034417716E+02  -3.102325509E+01  -9.067244754E+01   2.417102619E+01
   2.494700000E-02   1.034453619E+02  -3.102433248E+01  -9.066470328E+01   2.417119647E+01
   2.494800000E-02   1.034489545E+02  -3.102540987E+01  -9.065696131E+01   2.417136352E+01
   2.494900000E-02   1.034525417E+02  -3.102648593E+01  -9.064921933E+01   2.417152942E+01
   2.495000000E-02   1.034561293E+02  -3.102756165E+01  -9.064147923E+01   2.417169277E+01
   2.495100000E-02   1.034597216E+02  -3.102863860E+01  -9.063373184E+01   2.417185378E+01
   2.495200000E-02   1.034633109E+02  -3.102971440E+01  -9.062599196E+01   2.417201121E+01
   2.495300000E-02   1.034668958E+02  -3.103078988E+01  -9.061825227E+01   2.417216758E+01
   2.495400000E-02   1.034704755E+02  -3.103186403E+01  -9.061051564E+01   2.417232127E+01
   2.495500000E-02   1.034740581E+02  -3.103293895E+01  -9.060278129E+01   2.417247116E+01
   2.495600000E-02   1.034776431E+02  -3.103401310E+01  -9.059504695E+01   2.417261989E+01
   2.495700000E-02   1.034812227E+02  -3.103508668E+01  -9.058731260E+01   2.417276463E+01
   2.495800000E-02   1.034848047E+02  -3.103616166E+01  -9.057956817E+01   2.417290784E+01
   2.495900000E-02   1.034883893E+02  -3.103723584E+01  -9.057183484E+01   2.417304692E+01
   2.496000000E-02   1.034919660E+02  -3.103830903E+01  -9.056410651E+01   2.417318343E+01
   2.496100000E-02   1.034955450E+02  -3.103938167E+01  -9.055637333E+01   2.417331769E+01
   2.496200000E-02   1.034991183E+02  -3.104045467E+01  -9.054864706E+01   2.417344775E+01
   2.496300000E-02   1.035026933E+02  -3.104152691E+01  -9.054092034E+01   2.417357609E+01
   2.496400000E-02   1.035062706E+02  -3.104259858E+01  -9.053318829E+01   2.417370118E+01
   2.496500000E-02   1.035098473E+02  -3.104367165E+01  -9.052545454E+01   2.417382262E+01
   2.496600000E-02   1.035134190E+02  -3.104474392E+01  -9.051772579E+01   2.417394149E+01
   2.496700000E-02   1.035169887E+02  -3.104581426E+01  -9.050999907E+01   2.417405704E+01
   2.496800000E-02   1.035205584E+02  -3.104688536E+01  -9.050227769E+01   2.417416878E+01
   2.496900000E-02   1.035241281E+02  -3.104795570E+01  -9.049455326E+01   2.417427671E+01
   2.497000000E-02   1.035276997E+02  -3.104902683E+01  -9.048682918E+01   2.417438224E+01
   2.497100000E-02   1.035312696E+02  -3.105009539E+01  -9.047911178E+01   2.417448469E+01
   2.497200000E-02   1.035348318E+02  -3.105116499E+01  -9.047139370E+01   2.417458277E+01
   2.497300000E-02   1.035384039E+02  -3.105223616E+01  -9.046366454E+01   2.417467748E+01
   2.497400000E-02   1.035419702E+02  -3.105330518E+01  -9.045594648E+01   2.417476964E+01
   2.497500000E-02   1.035455323E+02  -3.105437438E+01  -9.044822968E+01   2.417485716E+01
   2.497600000E-02   1.035490944E+02  -3.105544281E+01  -9.044051059E+01   2.417494163E+01
   2.497700000E-02   1.035526564E+02  -3.105651066E+01  -9.043279683E+01   2.417502287E+01
   2.497800000E-02   1.035562185E+02  -3.105757852E+01  -9.042508537E+01   2.417510029E+01
   2.497900000E-02   1.035597753E+02  -3.105864638E+01  -9.041737391E+01   2.417517390E+01
   2.498000000E-02   1.035633346E+02  -3.105971408E+01  -9.040965441E+01   2.417524336E+01
   2.498100000E-02   1.035668963E+02  -3.106078173E+01  -9.040194042E+01   2.417530991E+01
   2.498200000E-02   1.035704528E+02  -3.106184870E+01  -9.039422515E+01   2.417537196E+01
   2.498300000E-02   1.035740073E+02  -3.106291465E+01  -9.038651369E+01   2.417543031E+01
   2.498400000E-02   1.035775671E+02  -3.106398061E+01  -9.037880756E+01   2.417548484E+01
   2.498500000E-02   1.035811185E+02  -3.106504656E+01  -9.037109839E+01   2.417553557E+01
   2.498600000E-02   1.035846706E+02  -3.106611251E+01  -9.036339226E+01   2.417558248E+01
   2.498700000E-02   1.035882251E+02  -3.106717846E+01  -9.035568843E+01   2.417562558E+01
   2.498800000E-02   1.035917742E+02  -3.106824308E+01  -9.034798459E+01   2.417566486E+01
   2.498900000E-02   1.035953309E+02  -3.106930851E+01  -9.034027071E+01   2.417570038E+01
   2.499000000E-02   1.035988814E+02  -3.107037371E+01  -9.033256783E+01   2.417573262E+01
   2.499100000E-02   1.036024274E+02  -3.107143704E+01  -9.032486959E+01   2.417576002E+01
   2.499200000E-02   1.036059757E+02  -3.107250124E+01  -9.031716253E+01   2.417578392E+01
   2.499300000E-02   1.036095225E+02  -3.107356528E+01  -9.030946403E+01   2.417580413E+01
   2.499400000E-02   1.036130693E+02  -3.107462933E+01  -9.030176782E+01   2.417581920E+01
   2.499500000E-02   1.036166108E+02  -3.107569204E+01  -9.029406628E+01   2.417583121E+01
   2.499600000E-02   1.036201599E+02  -3.107675556E+01  -9.028635773E+01   2.417583866E+01
   2.499700000E-02   1.036237034E+02  -3.107781829E+01  -9.027865723E+01   2.417584171E+01
   2.499800000E-02   1.036272426E+02  -3.107888043E+01  -9.027096636E+01   2.417584229E+01
   2.499900000E-02   1.036307871E+02  -3.107994257E+01  -9.026327244E+01   2.417583828E+01
   2.500000000E-02   1.036343218E+02  -3.108100469E+01  -9.025558000E+01   2.417582895E+01
   2.500000037E-02   1.036343231E+02  -3.108100510E+01  -9.025557709E+01   2.417582893E+01




          JOB CONCLUDED

          TOTAL JOB TIME            4.94
