
**** 05/31/13 11:07:39 ********* PSpice 9.2 (Mar 2000) ******** ID# 1 ********

 ** Profile: "SCHEMATIC1-2"  [ G:\44FZ\paralel-schematic1-2.sim ] 


 ****     CIRCUIT DESCRIPTION


******************************************************************************




** Creating circuit file "paralel-schematic1-2.sim.cir" 
** WARNING: THIS AUTOMATICALLY GENERATED FILE MAY BE OVERWRITTEN BY SUBSEQUENT SIMULATIONS

*Libraries: 
* Local Libraries :
* From [PSPICE NETLIST] section of g:\program files\Orcad\PSpice\PSpice.ini file:
.lib "nom.lib" 

*Analysis directives: 
.TRAN 1u 25ms 13ms 1u 
.OPTIONS NOBIAS
.OPTIONS NOMOD
.OPTIONS NOOUTMSG
.OPTIONS ITL4= 100
.OPTIONS NUMDGT= 10
.OPTIONS WIDTH= 132
.PROBE V(*) I(*) W(*) D(*) NOISE(*) 
.INC ".\paralel-SCHEMATIC1.net" 



**** INCLUDING paralel-SCHEMATIC1.net ****
* source PARALEL
R_R2         0 N50597  1MEG  
X_S4    N241303 0 N27236 N241265 SCHEMATIC1_S4 
X_S2    N236610 0 N27236 N235437 SCHEMATIC1_S2 
R_RB1         0 SHIM  3.33333  
R_R6         0 N260882  1MEG  
E_DIFF3         N241303 0 VALUE {V(N257386,N254383)}
R_RB2         0 N235437  4  
R_R8         0 N260240  1MEG  
X_U2         N260882 N254383 Sw_tClose PARAMS: tClose=14.08m ttran=1u
+  Rclosed=0.01 Ropen=1Meg
E_E1         N62053 0 VALUE {
+  if(I(V_V1)<138.9473,(-25.641*log((139.2857-I(V_V1))/139.2857))/-1.204+128.2051,0)
+  }
R_RB3         0 N239113  4  
C_CN         N40356 RN1  0.001  
L_L2         N64666 RN1  5uH  
C_CF         N00729 N27236  0.009  
V_V4         N259871 0   0.7
R_R4         0 N254383  1MEG  
R_RK2         N234987 N64666  0.02630  
R_RCN         0 N40356  0.02171  
V_V3         N50597 0 DC 0.01 AC 1
+PULSE 0 0.8 0 0.0098m 0.0001m 0.01m 0.01m
R_RCF         N00729 0  6.51419e-3  
X_S3    N239167 0 N27236 N239113 SCHEMATIC1_S3 
V_V5         N260240 0   0.7
X_U3         N260009 N260882 Sw_tClose PARAMS: tClose=24.5m ttran=1u
+  Rclosed=0.01 Ropen=1Meg
R_R7         0 N260009  1MEG  
L_L1         N134688 N27236  5uH  
V_V6         N257386 0   0.7
X_S1    N27337 0 N27236 SHIM SCHEMATIC1_S1 
R_RDN         0 N27236  40  
E_DIFF1         N50582 0 VALUE {V(N08877,N27236)}
E_DIFF4         N239167 0 VALUE {V(N260240,N260882)}
V_V2         N254251 0   1
V_V1         N62053 N134650 DC 0 AC 1 0
R_RB4         0 N241265  4  
V_Unom         N08877 0   100
R_R3         0 N254251  1MEG  
E_DIFF5         N236610 0 VALUE {V(N259871,N260009)}
R_RA         0 RN1  1.818181818  
R_RK1         N134688 N134650  0.02630  
E_DIFF2         N27337 0 VALUE {V(N50597,N50582)}
R_R5         0 N257386  1MEG  
X_SwStart         N27236 N234987 Sw_tClose PARAMS: tClose=14m ttran=1u
+  Rclosed=1u Ropen=1MEG
X_U1         N254383 N254251 Sw_tClose PARAMS: tClose=14.08m ttran=1u
+  Rclosed=0.01 Ropen=1Meg
R_R1         0 N08877  1MEG  
R_R9         0 N259871  1MEG  
.IC         V(N134650 )=5
.PRINT         TRAN V([N27236]) I(R_RB1) I(R_RK1) I(R_RK2)
.subckt SCHEMATIC1_S4 1 2 3 4  
S_S4         3 4 1 2 _S4
RS_S4         1 2 1G
.MODEL         _S4 VSWITCH Roff=1e4 Ron=1m Voff=-1e-4 Von=1e-4
.ends SCHEMATIC1_S4

.subckt SCHEMATIC1_S2 1 2 3 4  
S_S2         3 4 1 2 _S2
RS_S2         1 2 1G
.MODEL         _S2 VSWITCH Roff=1e4 Ron=0.1m Voff=-1e-4 Von=1e-4
.ends SCHEMATIC1_S2

.subckt SCHEMATIC1_S3 1 2 3 4  
S_S3         3 4 1 2 _S3
RS_S3         1 2 1G
.MODEL         _S3 VSWITCH Roff=1e4 Ron=1m Voff=-1e-4 Von=1e-4
.ends SCHEMATIC1_S3

.subckt SCHEMATIC1_S1 1 2 3 4  
S_S1         3 4 1 2 _S1
RS_S1         1 2 1G
.MODEL         _S1 VSWITCH Roff=1e4 Ron=1m Voff=-1e-4 Von=1e-4
.ends SCHEMATIC1_S1

**** RESUMING paralel-schematic1-2.sim.cir ****
.END

WARNING -- Pulse Period < (Rise Time + Fall Time + Pulse Width) for V_V3
WARNING -- Pulse Period < (Rise Time + Fall Time + Pulse Width) for V_V3
**** 05/31/13 11:07:39 ********* PSpice 9.2 (Mar 2000) ******** ID# 1 ********

 ** Profile: "SCHEMATIC1-2"  [ G:\44FZ\paralel-schematic1-2.sim ] 


 ****     TRANSIENT ANALYSIS               TEMPERATURE =   27.000 DEG C


******************************************************************************



  TIME              V(N27236)         I(R_RB1)          I(R_RK1)          I(R_RK2)          

   1.300000000E-02   9.984606869E+01  -9.981280130E-03  -9.806647543E+01   9.984586248E-05
   1.300100000E-02   9.984817359E+01  -9.981489939E-03  -9.803760821E+01   9.984799326E-05
   1.300200000E-02   9.983615145E+01  -2.173023181E+00  -9.801264043E+01   9.983597319E-05
   1.300300000E-02   9.975512896E+01  -1.486759675E+01  -9.799906096E+01   9.975495517E-05
   1.300400000E-02   9.967346154E+01  -2.746403132E+01  -9.800230833E+01   9.967328503E-05
   1.300500000E-02   9.965686699E+01  -2.988812291E+01  -9.801553996E+01   9.965668992E-05
   1.300600000E-02   9.965594395E+01  -2.988784784E+01  -9.802807138E+01   9.965576599E-05
   1.300700000E-02   9.965501936E+01  -2.988756898E+01  -9.803949567E+01   9.965484056E-05
   1.300800000E-02   9.965408791E+01  -2.988728867E+01  -9.804991549E+01   9.965390861E-05
   1.300900000E-02   9.965314942E+01  -2.988700828E+01  -9.805944311E+01   9.965297041E-05
   1.301000000E-02   9.974900249E+01  -1.499975064E+01  -9.806438707E+01   9.974882146E-05
   1.301100000E-02   9.984825992E+01  -9.981498587E-03  -9.803591164E+01   9.984808093E-05
   1.301200000E-02   9.982323176E+01  -4.164523957E+00  -9.801240382E+01   9.982305545E-05
   1.301300000E-02   9.975512562E+01  -1.485035088E+01  -9.800007820E+01   9.975494570E-05
   1.301400000E-02   9.967348691E+01  -2.745746328E+01  -9.800212104E+01   9.967330882E-05
   1.301500000E-02   9.965716010E+01  -2.984530978E+01  -9.801497253E+01   9.965698040E-05
   1.301600000E-02   9.965596811E+01  -2.988785255E+01  -9.802753652E+01   9.965579323E-05
   1.301700000E-02   9.965503951E+01  -2.988757427E+01  -9.803901279E+01   9.965485925E-05
   1.301800000E-02   9.965410880E+01  -2.988729581E+01  -9.804947619E+01   9.965393273E-05
   1.301900000E-02   9.965317194E+01  -2.988701426E+01  -9.805904213E+01   9.965299090E-05
   1.302000000E-02   9.974939908E+01  -1.494163415E+01  -9.806403598E+01   9.974921715E-05
   1.302100000E-02   9.984827886E+01  -9.981501114E-03  -9.803558713E+01   9.984810085E-05
   1.302200000E-02   9.982322205E+01  -4.169133268E+00  -9.801211155E+01   9.982304772E-05
   1.302300000E-02   9.975509384E+01  -1.485856660E+01  -9.799981633E+01   9.975491391E-05
   1.302400000E-02   9.967353109E+01  -2.745390824E+01  -9.800188895E+01   9.967335300E-05
   1.302500000E-02   9.965717842E+01  -2.984593170E+01  -9.801477321E+01   9.965699784E-05
   1.302600000E-02   9.965598435E+01  -2.988786007E+01  -9.802734927E+01   9.965580871E-05
   1.302700000E-02   9.965506142E+01  -2.988758200E+01  -9.803883666E+01   9.965488015E-05
   1.302800000E-02   9.965412590E+01  -2.988730202E+01  -9.804931535E+01   9.965395505E-05
   1.302900000E-02   9.965318699E+01  -2.988702149E+01  -9.805889797E+01   9.965300651E-05
   1.303000000E-02   9.974934421E+01  -1.495302014E+01  -9.806390092E+01   9.974916504E-05
   1.303100000E-02   9.984829775E+01  -9.981502863E-03  -9.803547715E+01   9.984811699E-05
   1.303200000E-02   9.982324880E+01  -4.168190844E+00  -9.801200658E+01   9.982307195E-05
   1.303300000E-02   9.975508485E+01  -1.486318864E+01  -9.799971166E+01   9.975490492E-05
   1.303400000E-02   9.967349933E+01  -2.746193679E+01  -9.800179868E+01   9.967332124E-05
   1.303500000E-02   9.965719823E+01  -2.984639700E+01  -9.801467656E+01   9.965701678E-05
   1.303600000E-02   9.965600774E+01  -2.988786594E+01  -9.802726359E+01   9.965583103E-05
   1.303700000E-02   9.965507780E+01  -2.988758766E+01  -9.803876293E+01   9.965489577E-05
   1.303800000E-02   9.965414709E+01  -2.988730764E+01  -9.804924307E+01   9.965397525E-05
   1.303900000E-02   9.965321023E+01  -2.988702732E+01  -9.805882440E+01   9.965302870E-05
   1.304000000E-02   9.974929344E+01  -1.496436386E+01  -9.806383832E+01   9.974911320E-05
   1.304100000E-02   9.984832146E+01  -9.981504807E-03  -9.803540060E+01   9.984813963E-05
   1.304200000E-02   9.982324137E+01  -4.172700051E+00  -9.801194014E+01   9.982306421E-05
   1.304300000E-02   9.975510626E+01  -1.486294951E+01  -9.799966042E+01   9.975492634E-05
   1.304400000E-02   9.967349416E+01  -2.746577213E+01  -9.800174859E+01   9.967331607E-05
   1.304500000E-02   9.965720987E+01  -2.984702392E+01  -9.801464098E+01   9.965702783E-05
   1.304600000E-02   9.965602893E+01  -2.988787156E+01  -9.802722398E+01   9.965585123E-05
   1.304700000E-02   9.965510104E+01  -2.988759349E+01  -9.803871287E+01   9.965491795E-05
   1.304800000E-02   9.965416976E+01  -2.988731329E+01  -9.804920593E+01   9.965399087E-05
   1.304900000E-02   9.965323276E+01  -2.988703294E+01  -9.805878993E+01   9.965304888E-05
   1.305000000E-02   9.974969003E+01  -1.490624732E+01  -9.806378480E+01   9.974950890E-05
   1.305100000E-02   9.984833844E+01  -9.981506556E-03  -9.803537453E+01   9.984816033E-05
   1.305200000E-02   9.982326585E+01  -4.171573885E+00  -9.801191375E+01   9.982309066E-05
   1.305300000E-02   9.975509728E+01  -1.486731240E+01  -9.799962671E+01   9.975491736E-05
   1.305400000E-02   9.967351175E+01  -2.746597940E+01  -9.800171588E+01   9.967333366E-05
   1.305500000E-02   9.965723006E+01  -2.984740860E+01  -9.801460316E+01   9.965704715E-05
   1.305600000E-02   9.965604532E+01  -2.988787722E+01  -9.802719627E+01   9.965587285E-05
   1.305700000E-02   9.965511594E+01  -2.988759910E+01  -9.803868676E+01   9.965493941E-05
   1.305800000E-02   9.965418538E+01  -2.988731912E+01  -9.804917150E+01   9.965401304E-05
   1.305900000E-02   9.965324852E+01  -2.988703881E+01  -9.805875430E+01   9.965306522E-05
   1.306000000E-02   9.974918399E+01  -1.498709264E+01  -9.806377037E+01   9.974900199E-05
   1.306100000E-02   9.984835928E+01  -9.981508501E-03  -9.803533327E+01   9.984818024E-05
   1.306200000E-02   9.982325841E+01  -4.175886424E+00  -9.801187478E+01   9.982308290E-05
   1.306300000E-02   9.975511869E+01  -1.486679373E+01  -9.799959835E+01   9.975493877E-05
   1.306400000E-02   9.967347999E+01  -2.747360920E+01  -9.800169428E+01   9.967330190E-05
   1.306500000E-02   9.965724171E+01  -2.984798491E+01  -9.801458552E+01   9.965705821E-05
   1.306600000E-02   9.965606092E+01  -2.988788305E+01  -9.802716868E+01   9.965588774E-05
   1.306700000E-02   9.965513799E+01  -2.988760497E+01  -9.803865775E+01   9.965495448E-05
   1.306800000E-02   9.965420176E+01  -2.988732478E+01  -9.804915095E+01   9.965402739E-05
   1.306900000E-02   9.965326342E+01  -2.988704442E+01  -9.805872879E+01   9.965308541E-05
   1.307000000E-02   9.974957676E+01  -1.492897513E+01  -9.806372829E+01   9.974939769E-05
   1.307100000E-02   9.984837340E+01  -9.981510249E-03  -9.803532056E+01   9.984819639E-05
   1.307200000E-02   9.982325894E+01  -4.178440124E+00  -9.801184187E+01   9.982308322E-05
   1.307300000E-02   9.975508691E+01  -1.487443134E+01  -9.799956997E+01   9.975490698E-05
   1.307400000E-02   9.967352417E+01  -2.746946758E+01  -9.800166588E+01   9.967334608E-05
   1.307500000E-02   9.965699142E+01  -2.988816073E+01  -9.801472157E+01   9.965681338E-05
   1.307600000E-02   9.965606898E+01  -2.988788432E+01  -9.802727514E+01   9.965589000E-05
   1.307700000E-02   9.965513949E+01  -2.988760618E+01  -9.803875586E+01   9.965495992E-05
   1.307800000E-02   9.965420893E+01  -2.988732617E+01  -9.804922639E+01   9.965402882E-05
   1.307900000E-02   9.965327196E+01  -2.988704586E+01  -9.805880173E+01   9.965309161E-05
   1.308000000E-02   9.974951084E+01  -1.494030000E+01  -9.806379157E+01   9.974933141E-05
   1.308100000E-02   9.984838185E+01  -9.981511262E-03  -9.803536322E+01   9.984820448E-05
   1.308200000E-02   9.982327088E+01  -4.177436695E+00  -9.801189563E+01   9.982309505E-05
   1.308300000E-02   9.975513112E+01  -1.486832444E+01  -9.799961486E+01   9.975495120E-05
   1.308400000E-02   9.967349241E+01  -2.747509986E+01  -9.800170799E+01   9.967331432E-05
   1.308500000E-02   9.965699349E+01  -2.988816253E+01  -9.801476246E+01   9.965681303E-05
   1.308600000E-02   9.965607575E+01  -2.988788634E+01  -9.802730200E+01   9.965589648E-05
   1.308700000E-02   9.965514763E+01  -2.988760824E+01  -9.803877384E+01   9.965496770E-05
   1.308800000E-02   9.965421634E+01  -2.988732801E+01  -9.804925177E+01   9.965403587E-05
   1.308900000E-02   9.965327922E+01  -2.988704605E+01  -9.805882188E+01   9.965309852E-05
   1.309000000E-02   9.974944061E+01  -1.495170009E+01  -9.806380910E+01   9.974926101E-05
   1.309100000E-02   9.984838553E+01  -9.981511344E-03  -9.803536774E+01   9.984820530E-05
   1.309200000E-02   9.982325655E+01  -4.180271398E+00  -9.801190244E+01   9.982308073E-05
   1.309300000E-02   9.975509933E+01  -1.487400752E+01  -9.799962691E+01   9.975491941E-05
   1.309400000E-02   9.967348722E+01  -2.747660646E+01  -9.800171893E+01   9.967330913E-05
   1.309500000E-02   9.965699680E+01  -2.988816349E+01  -9.801475951E+01   9.965681986E-05
   1.309600000E-02   9.965607462E+01  -2.988788715E+01  -9.802729716E+01   9.965589673E-05
   1.309700000E-02   9.965515152E+01  -2.988760906E+01  -9.803877256E+01   9.965497274E-05
   1.309800000E-02   9.965421624E+01  -2.988732911E+01  -9.804924176E+01   9.965404303E-05
   1.309900000E-02   9.965328422E+01  -2.988704879E+01  -9.805880750E+01   9.965310604E-05
   1.310000000E-02   9.974937018E+01  -1.496313115E+01  -9.806381137E+01   9.974919041E-05
   1.310100000E-02   9.984838916E+01  -9.981512162E-03  -9.803538268E+01   9.984821144E-05
   1.310200000E-02   9.982327877E+01  -4.177525401E+00  -9.801191420E+01   9.982310284E-05
   1.310300000E-02   9.975509035E+01  -1.487608753E+01  -9.799962601E+01   9.975491042E-05
   1.310400000E-02   9.967350482E+01  -2.747457276E+01  -9.800171407E+01   9.967332673E-05
   1.310500000E-02   9.965700066E+01  -2.988816427E+01  -9.801476828E+01   9.965682337E-05
   1.310600000E-02   9.965607915E+01  -2.988788813E+01  -9.802729912E+01   9.965590090E-05
   1.310700000E-02   9.965515622E+01  -2.988761008E+01  -9.803877028E+01   9.965497708E-05
   1.310800000E-02   9.965422088E+01  -2.988733012E+01  -9.804923634E+01   9.965404734E-05
   1.310900000E-02   9.965328198E+01  -2.988704960E+01  -9.805881259E+01   9.965310962E-05
   1.311000000E-02   9.974930446E+01  -1.497442410E+01  -9.806381362E+01   9.974912069E-05
   1.311100000E-02   9.984839761E+01  -9.981512244E-03  -9.803536431E+01   9.984821680E-05
   1.311200000E-02   9.982326673E+01  -4.180305138E+00  -9.801189812E+01   9.982309070E-05
   1.311300000E-02   9.975511176E+01  -1.487339817E+01  -9.799962054E+01   9.975493184E-05
   1.311400000E-02   9.967347306E+01  -2.748007521E+01  -9.800171306E+01   9.967329497E-05
   1.311500000E-02   9.965700879E+01  -2.988816633E+01  -9.801475347E+01   9.965683114E-05
   1.311600000E-02   9.965608658E+01  -2.988788997E+01  -9.802729415E+01   9.965590798E-05
   1.311700000E-02   9.965515728E+01  -2.988761188E+01  -9.803876704E+01   9.965497808E-05
   1.311800000E-02   9.965422672E+01  -2.988733192E+01  -9.804923272E+01   9.965404698E-05
   1.311900000E-02   9.965328995E+01  -2.988705006E+01  -9.805880150E+01   9.965310996E-05
   1.312000000E-02   9.974968197E+01  -1.491630562E+01  -9.806379443E+01   9.974950183E-05
   1.312100000E-02   9.984839647E+01  -9.981513061E-03  -9.803537163E+01   9.984821840E-05
   1.312200000E-02   9.982326267E+01  -4.181401622E+00  -9.801188809E+01   9.982308664E-05
   1.312300000E-02   9.975507998E+01  -1.487897547E+01  -9.799960970E+01   9.975490005E-05
   1.312400000E-02   9.967351724E+01  -2.747391587E+01  -9.800170489E+01   9.967333915E-05
   1.312500000E-02   9.965701184E+01  -2.988816724E+01  -9.801475030E+01   9.965683420E-05
   1.312600000E-02   9.965609036E+01  -2.988789111E+01  -9.802728169E+01   9.965591176E-05
   1.312700000E-02   9.965516055E+01  -2.988761285E+01  -9.803875943E+01   9.965498135E-05
   1.312800000E-02   9.965422982E+01  -2.988733285E+01  -9.804922894E+01   9.965405008E-05
   1.312900000E-02   9.965329308E+01  -2.988705254E+01  -9.805879447E+01   9.965311309E-05
   1.313000000E-02   9.974916449E+01  -1.499714907E+01  -9.806380288E+01   9.974898402E-05
   1.313100000E-02   9.984840492E+01  -9.981513143E-03  -9.803535611E+01   9.984822649E-05
   1.313200000E-02   9.982327462E+01  -4.180257710E+00  -9.801188616E+01   9.982309848E-05
   1.313300000E-02   9.975512419E+01  -1.487267410E+01  -9.799961187E+01   9.975494427E-05
   1.313400000E-02   9.967348548E+01  -2.747936300E+01  -9.800170389E+01   9.967330739E-05
   1.313500000E-02   9.965701656E+01  -2.988816828E+01  -9.801474382E+01   9.965683856E-05
   1.313600000E-02   9.965609435E+01  -2.988789192E+01  -9.802728464E+01   9.965591540E-05
   1.313700000E-02   9.965516505E+01  -2.988761383E+01  -9.803875769E+01   9.965498549E-05
   1.313800000E-02   9.965423449E+01  -2.988733387E+01  -9.804922352E+01   9.965405440E-05
   1.313900000E-02   9.965329773E+01  -2.988705356E+01  -9.805878624E+01   9.965311738E-05
   1.314000000E-02   9.974954200E+01  -1.493902963E+01  -9.806378750E+01   9.974936151E-05
   1.314100000E-02   9.984840451E+01  -9.981513452E-03  -9.803535856E+01   9.984822608E-05
   1.314200000E-02   9.982327057E+01  -4.181317342E+00  -9.801188377E+01   9.982309443E-05
   1.314300000E-02   9.975509240E+01  -1.487820123E+01  -9.799960333E+01   9.975491248E-05
   1.314400000E-02   9.967352966E+01  -2.747315218E+01  -9.800169572E+01   9.967335157E-05
   1.314500000E-02   9.965701620E+01  -2.988816888E+01  -9.801474136E+01   9.965683820E-05
   1.314600000E-02   9.965609469E+01  -2.988789203E+01  -9.802727246E+01   9.965591574E-05
   1.314700000E-02   9.965517106E+01  -2.988761377E+01  -9.803875249E+01   9.965499121E-05
   1.314800000E-02   9.965423555E+01  -2.988733531E+01  -9.804921990E+01   9.965406131E-05
   1.314900000E-02   9.965330356E+01  -2.988705380E+01  -9.805878847E+01   9.965312429E-05
   1.315000000E-02   9.974947577E+01  -1.495040146E+01  -9.806378595E+01   9.974929493E-05
   1.315100000E-02   9.984841222E+01  -9.981514042E-03  -9.803534982E+01   9.984823344E-05
   1.315200000E-02   9.982328252E+01  -4.180140512E+00  -9.801188184E+01   9.982310627E-05
   1.315300000E-02   9.975508341E+01  -1.488014977E+01  -9.799959479E+01   9.975490348E-05
   1.315400000E-02   9.967349790E+01  -2.747855353E+01  -9.800169204E+01   9.967331981E-05
   1.315500000E-02   9.965702347E+01  -2.988816997E+01  -9.801474174E+01   9.965684512E-05
   1.315600000E-02   9.965610196E+01  -2.988789383E+01  -9.802726965E+01   9.965592265E-05
   1.315700000E-02   9.965517282E+01  -2.988761578E+01  -9.803874072E+01   9.965499291E-05
   1.315800000E-02   9.965424226E+01  -2.988733582E+01  -9.804920670E+01   9.965406181E-05
   1.315900000E-02   9.965330479E+01  -2.988705529E+01  -9.805878287E+01   9.965312409E-05
   1.316000000E-02   9.974940204E+01  -1.496175364E+01  -9.806378058E+01   9.974922120E-05
   1.316100000E-02   9.984841305E+01  -9.981514124E-03  -9.803533145E+01   9.984823426E-05
   1.316200000E-02   9.982326818E+01  -4.182832014E+00  -9.801186576E+01   9.982309194E-05
   1.316300000E-02   9.975510483E+01  -1.487733296E+01  -9.799959466E+01   9.975492491E-05
   1.316400000E-02   9.967349272E+01  -2.747986009E+01  -9.800169269E+01   9.967331463E-05
   1.316500000E-02   9.965702397E+01  -2.988817202E+01  -9.801473171E+01   9.965684562E-05
   1.316600000E-02   9.965610246E+01  -2.988789433E+01  -9.802726295E+01   9.965592315E-05
   1.316700000E-02   9.965517883E+01  -2.988761727E+01  -9.803874315E+01   9.965499863E-05
   1.316800000E-02   9.965424332E+01  -2.988733762E+01  -9.804921070E+01   9.965406873E-05
   1.316900000E-02   9.965330513E+01  -2.988705575E+01  -9.805877321E+01   9.965313171E-05
   1.317000000E-02   9.974978337E+01  -1.490363515E+01  -9.806376139E+01   9.974960235E-05
   1.317100000E-02   9.984841953E+01  -9.981514360E-03  -9.803534163E+01   9.984823767E-05
   1.317200000E-02   9.982329042E+01  -4.179958257E+00  -9.801187522E+01   9.982311406E-05
   1.317300000E-02   9.975509585E+01  -1.487923421E+01  -9.799958842E+01   9.975491592E-05
   1.317400000E-02   9.967351032E+01  -2.747765565E+01  -9.800168287E+01   9.967333223E-05
   1.317500000E-02   9.965703124E+01  -2.988817192E+01  -9.801472924E+01   9.965685253E-05
   1.317600000E-02   9.965610973E+01  -2.988789577E+01  -9.802726014E+01   9.965593007E-05
   1.317700000E-02   9.965518059E+01  -2.988761773E+01  -9.803873137E+01   9.965500033E-05
   1.317800000E-02   9.965424933E+01  -2.988733756E+01  -9.804920529E+01   9.965406853E-05
   1.317900000E-02   9.965331240E+01  -2.988705720E+01  -9.805877545E+01   9.965313135E-05
   1.318000000E-02   9.974926207E+01  -1.498447766E+01  -9.806377747E+01   9.974908088E-05
   1.318100000E-02   9.984842035E+01  -9.981515023E-03  -9.803532802E+01   9.984824122E-05
   1.318200000E-02   9.982327608E+01  -4.182619377E+00  -9.801186143E+01   9.982309972E-05
   1.318300000E-02   9.975511726E+01  -1.487637668E+01  -9.799958829E+01   9.975493734E-05
   1.318400000E-02   9.967347856E+01  -2.748299337E+01  -9.800168186E+01   9.967330046E-05
   1.318500000E-02   9.965703174E+01  -2.988817278E+01  -9.801472206E+01   9.965685303E-05
   1.318600000E-02   9.965610953E+01  -2.988789572E+01  -9.802726280E+01   9.965592987E-05
   1.318700000E-02   9.965518023E+01  -2.988761762E+01  -9.803873576E+01   9.965500588E-05
   1.318800000E-02   9.965424967E+01  -2.988733921E+01  -9.804920151E+01   9.965407023E-05
   1.318900000E-02   9.965331291E+01  -2.988705770E+01  -9.805876415E+01   9.965313777E-05
   1.319000000E-02   9.974964340E+01  -1.492635916E+01  -9.806375828E+01   9.974946203E-05
   1.319100000E-02   9.984842208E+01  -9.981514909E-03  -9.803533534E+01   9.984824008E-05
   1.319200000E-02   9.982327202E+01  -4.183601711E+00  -9.801185141E+01   9.982309567E-05
   1.319300000E-02   9.975508547E+01  -1.488179288E+01  -9.799957745E+01   9.975490555E-05
   1.319400000E-02   9.967352273E+01  -2.747667444E+01  -9.800167369E+01   9.967334464E-05
   1.319500000E-02   9.965703423E+01  -2.988817387E+01  -9.801471960E+01   9.965685539E-05
   1.319600000E-02   9.965610987E+01  -2.988789772E+01  -9.802725062E+01   9.965593612E-05
   1.319700000E-02   9.965518694E+01  -2.988761968E+01  -9.803872203E+01   9.965500775E-05
   1.319800000E-02   9.965425089E+01  -2.988733951E+01  -9.804919610E+01   9.965407594E-05
   1.319900000E-02   9.965331874E+01  -2.988705915E+01  -9.805876638E+01   9.965313877E-05
   1.320000000E-02   9.974957373E+01  -1.493767083E+01  -9.806375671E+01   9.974939219E-05
   1.320100000E-02   9.984842766E+01  -9.981515341E-03  -9.803531982E+01   9.984824817E-05
   1.320200000E-02   9.982328397E+01  -4.182349713E+00  -9.801185482E+01   9.982310751E-05
   1.320300000E-02   9.975512968E+01  -1.487534000E+01  -9.799957657E+01   9.975494976E-05
   1.320400000E-02   9.967349097E+01  -2.748197276E+01  -9.800167269E+01   9.967331288E-05
   1.320500000E-02   9.965703897E+01  -2.988817457E+01  -9.801472015E+01   9.965685991E-05
   1.320600000E-02   9.965611714E+01  -2.988789762E+01  -9.802724923E+01   9.965593713E-05
   1.320700000E-02   9.965518800E+01  -2.988761957E+01  -9.803871879E+01   9.965500738E-05
   1.320800000E-02   9.965425744E+01  -2.988734116E+01  -9.804918468E+01   9.965407629E-05
   1.320900000E-02   9.965332068E+01  -2.988705965E+01  -9.805875366E+01   9.965313927E-05
   1.321000000E-02   9.974949961E+01  -1.494908318E+01  -9.806375517E+01   9.974931807E-05
   1.321100000E-02   9.984842848E+01  -9.981516005E-03  -9.803530622E+01   9.984824899E-05
   1.321200000E-02   9.982326963E+01  -4.184970760E+00  -9.801184102E+01   9.982309317E-05
   1.321300000E-02   9.975509790E+01  -1.488071939E+01  -9.799957107E+01   9.975491798E-05
   1.321400000E-02   9.967353515E+01  -2.747561761E+01  -9.800166451E+01   9.967335706E-05
   1.321500000E-02   9.965704256E+01  -2.988817493E+01  -9.801470925E+01   9.965686350E-05
   1.321600000E-02   9.965612038E+01  -2.988789859E+01  -9.802724397E+01   9.965594037E-05
   1.321700000E-02   9.965519111E+01  -2.988762050E+01  -9.803871935E+01   9.965501049E-05
   1.321800000E-02   9.965426054E+01  -2.988734209E+01  -9.804918236E+01   9.965407939E-05
   1.321900000E-02   9.965332381E+01  -2.988706060E+01  -9.805874663E+01   9.965314240E-05
   1.322000000E-02   9.974942926E+01  -1.496050103E+01  -9.806374981E+01   9.974924754E-05
   1.322100000E-02   9.984843020E+01  -9.981515891E-03  -9.803531640E+01   9.984825240E-05
   1.322200000E-02   9.982328958E+01  -4.182026394E+00  -9.801185049E+01   9.982311530E-05
   1.322300000E-02   9.975508891E+01  -1.488252379E+01  -9.799956483E+01   9.975490899E-05
   1.322400000E-02   9.967350339E+01  -2.748087901E+01  -9.800166847E+01   9.967332530E-05
   1.322500000E-02   9.965704220E+01  -2.988817673E+01  -9.801471150E+01   9.965686315E-05
   1.322600000E-02   9.965612072E+01  -2.988790060E+01  -9.802723947E+01   9.965594071E-05
   1.322700000E-02   9.965519091E+01  -2.988762234E+01  -9.803871557E+01   9.965501619E-05
   1.322800000E-02   9.965426018E+01  -2.988734234E+01  -9.804918491E+01   9.965408041E-05
   1.322900000E-02   9.965332344E+01  -2.988706203E+01  -9.805875029E+01   9.965314793E-05
   1.323000000E-02   9.974935965E+01  -1.497180625E+01  -9.806375206E+01   9.974917775E-05
   1.323100000E-02   9.984843579E+01  -9.981516322E-03  -9.803530279E+01   9.984825595E-05
   1.323200000E-02   9.982327753E+01  -4.184621666E+00  -9.801183670E+01   9.982310096E-05
   1.323300000E-02   9.975511033E+01  -1.487957122E+01  -9.799956470E+01   9.975493040E-05
   1.323400000E-02   9.967347163E+01  -2.748612514E+01  -9.800166480E+01   9.967329354E-05
   1.323500000E-02   9.965704474E+01  -2.988817663E+01  -9.801471193E+01   9.965686555E-05
   1.323600000E-02   9.965612036E+01  -2.988790049E+01  -9.802723665E+01   9.965594624E-05
   1.323700000E-02   9.965519742E+01  -2.988762245E+01  -9.803871001E+01   9.965501791E-05
   1.323800000E-02   9.965426214E+01  -2.988734250E+01  -9.804917316E+01   9.965408681E-05
   1.323900000E-02   9.965332942E+01  -2.988706197E+01  -9.805874466E+01   9.965314912E-05
   1.324000000E-02   9.974973715E+01  -1.491368774E+01  -9.806373287E+01   9.974955890E-05
   1.324100000E-02   9.984843465E+01  -9.981516790E-03  -9.803531297E+01   9.984825481E-05
   1.324200000E-02   9.982327347E+01  -4.185541316E+00  -9.801183202E+01   9.982309690E-05
   1.324300000E-02   9.975507854E+01  -1.488489748E+01  -9.799956149E+01   9.975489862E-05
   1.324400000E-02   9.967351581E+01  -2.747971851E+01  -9.800165929E+01   9.967333772E-05
   1.324500000E-02   9.965704997E+01  -2.988817750E+01  -9.801470185E+01   9.965687056E-05
   1.324600000E-02   9.965612849E+01  -2.988790064E+01  -9.802722996E+01   9.965594812E-05
   1.324700000E-02   9.965519868E+01  -2.988762239E+01  -9.803870622E+01   9.965501771E-05
   1.324800000E-02   9.965426795E+01  -2.988734393E+01  -9.804917571E+01   9.965408645E-05
   1.324900000E-02   9.965333121E+01  -2.988706244E+01  -9.805874123E+01   9.965314946E-05
   1.325000000E-02   9.974921585E+01  -1.499453027E+01  -9.806374895E+01   9.974903379E-05
   1.325100000E-02   9.984843833E+01  -9.981516872E-03  -9.803529936E+01   9.984826017E-05
   1.325200000E-02   9.982328313E+01  -4.184226942E+00  -9.801183237E+01   9.982310875E-05
   1.325300000E-02   9.975512275E+01  -1.487835822E+01  -9.799955832E+01   9.975494283E-05
   1.325400000E-02   9.967348405E+01  -2.748493221E+01  -9.800165562E+01   9.967330596E-05
   1.325500000E-02   9.965704961E+01  -2.988817857E+01  -9.801470229E+01   9.965687021E-05
   1.325600000E-02   9.965612813E+01  -2.988790244E+01  -9.802723332E+01   9.965594776E-05
   1.325700000E-02   9.965519902E+01  -2.988762439E+01  -9.803870212E+01   9.965502394E-05
   1.325800000E-02   9.965426846E+01  -2.988734445E+01  -9.804917014E+01   9.965408834E-05
   1.325900000E-02   9.965333101E+01  -2.988706392E+01  -9.805874323E+01   9.965315515E-05
   1.326000000E-02   9.974959719E+01  -1.493641176E+01  -9.806373357E+01   9.974941494E-05
   1.326100000E-02   9.984844269E+01  -9.981516831E-03  -9.803529990E+01   9.984826250E-05
   1.326200000E-02   9.982328137E+01  -4.185123740E+00  -9.801182770E+01   9.982310470E-05
   1.326300000E-02   9.975509097E+01  -1.488365367E+01  -9.799955512E+01   9.975491104E-05
   1.326400000E-02   9.967352823E+01  -2.747849507E+01  -9.800165012E+01   9.967335014E-05
   1.326500000E-02   9.965705011E+01  -2.988817872E+01  -9.801469511E+01   9.965687070E-05
   1.326600000E-02   9.965612793E+01  -2.988790238E+01  -9.802722977E+01   9.965595346E-05
   1.326700000E-02   9.965520484E+01  -2.988762429E+01  -9.803870505E+01   9.965502496E-05
   1.326800000E-02   9.965426955E+01  -2.988734434E+01  -9.804916797E+01   9.965409386E-05
   1.326900000E-02   9.965333136E+01  -2.988706402E+01  -9.805873217E+01   9.965315688E-05
   1.327000000E-02   9.974952341E+01  -1.494777039E+01  -9.806373202E+01   9.974934116E-05
   1.327100000E-02   9.984844278E+01  -9.981517189E-03  -9.803529593E+01   9.984826258E-05
   1.327200000E-02   9.982329104E+01  -4.183789622E+00  -9.801182805E+01   9.982311436E-05
   1.327300000E-02   9.975508197E+01  -1.488538206E+01  -9.799954658E+01   9.975490205E-05
   1.327400000E-02   9.967349646E+01  -2.748368073E+01  -9.800165408E+01   9.967331837E-05
   1.327500000E-02   9.965705738E+01  -2.988817934E+01  -9.801469737E+01   9.965687762E-05
   1.327600000E-02   9.965613590E+01  -2.988790248E+01  -9.802722526E+01   9.965595518E-05
   1.327700000E-02   9.965520679E+01  -2.988762444E+01  -9.803869277E+01   9.965502547E-05
   1.327800000E-02   9.965427553E+01  -2.988734582E+01  -9.804916870E+01   9.965409367E-05
   1.327900000E-02   9.965333862E+01  -2.988706428E+01  -9.805873583E+01   9.965315651E-05
   1.328000000E-02   9.974945341E+01  -1.495913483E+01  -9.806373047E+01   9.974927098E-05
   1.328100000E-02   9.984844646E+01  -9.981517271E-03  -9.803528041E+01   9.984826340E-05
   1.328200000E-02   9.982327668E+01  -4.186333214E+00  -9.801181731E+01   9.982310002E-05
   1.328300000E-02   9.975510339E+01  -1.488235397E+01  -9.799954874E+01   9.975492347E-05
   1.328400000E-02   9.967349128E+01  -2.748477979E+01  -9.800164709E+01   9.967331319E-05
   1.328500000E-02   9.965705735E+01  -2.988818051E+01  -9.801469311E+01   9.965687759E-05
   1.328600000E-02   9.965613554E+01  -2.988790428E+01  -9.802722244E+01   9.965595482E-05
   1.328700000E-02   9.965520643E+01  -2.988762624E+01  -9.803869571E+01   9.965503100E-05
   1.328800000E-02   9.965427587E+01  -2.988734629E+01  -9.804915878E+01   9.965409539E-05
   1.328900000E-02   9.965333913E+01  -2.988706597E+01  -9.805872311E+01   9.965315702E-05
   1.329000000E-02   9.974983093E+01  -1.490101632E+01  -9.806371509E+01   9.974965212E-05
   1.329100000E-02   9.984845009E+01  -9.981517739E-03  -9.803529537E+01   9.984826954E-05
   1.329200000E-02   9.982329894E+01  -4.183313402E+00  -9.801182906E+01   9.982312216E-05
   1.329300000E-02   9.975509441E+01  -1.488405371E+01  -9.799954783E+01   9.975491449E-05
   1.329400000E-02   9.967350888E+01  -2.748237652E+01  -9.800164490E+01   9.967332824E-05
   1.329500000E-02   9.965705752E+01  -2.988818057E+01  -9.801469063E+01   9.965687776E-05
   1.329600000E-02   9.965613604E+01  -2.988790443E+01  -9.802721575E+01   9.965595532E-05
   1.329700000E-02   9.965520623E+01  -2.988762618E+01  -9.803869192E+01   9.965503080E-05
   1.329800000E-02   9.965427550E+01  -2.988734618E+01  -9.804916133E+01   9.965410092E-05
   1.329900000E-02   9.965333876E+01  -2.988706586E+01  -9.805872677E+01   9.965316393E-05
   1.330000000E-02   9.974930963E+01  -1.498185885E+01  -9.806373117E+01   9.974912703E-05
   1.330100000E-02   9.984845091E+01  -9.981517821E-03  -9.803528176E+01   9.984827036E-05
   1.330200000E-02   9.982328458E+01  -4.185839164E+00  -9.801181527E+01   9.982310781E-05
   1.330300000E-02   9.975511582E+01  -1.488100101E+01  -9.799954236E+01   9.975493590E-05
   1.330400000E-02   9.967347712E+01  -2.748752344E+01  -9.800164886E+01   9.967329649E-05
   1.330500000E-02   9.965705717E+01  -2.988818118E+01  -9.801469289E+01   9.965687740E-05
   1.330600000E-02   9.965613568E+01  -2.988790432E+01  -9.802722056E+01   9.965596085E-05
   1.330700000E-02   9.965521275E+01  -2.988762628E+01  -9.803868782E+01   9.965503252E-05
   1.330800000E-02   9.965427746E+01  -2.988734787E+01  -9.804915576E+01   9.965410142E-05
   1.330900000E-02   9.965333856E+01  -2.988706617E+01  -9.805872877E+01   9.965316373E-05
   1.331000000E-02   9.974968714E+01  -1.492373939E+01  -9.806371579E+01   9.974950453E-05
   1.331100000E-02   9.984844977E+01  -9.981517707E-03  -9.803529194E+01   9.984826922E-05
   1.331200000E-02   9.982328052E+01  -4.186690571E+00  -9.801181059E+01   9.982310375E-05
   1.331300000E-02   9.975508404E+01  -1.488623131E+01  -9.799953916E+01   9.975490411E-05
   1.331400000E-02   9.967352130E+01  -2.748102272E+01  -9.800163572E+01   9.967334066E-05
   1.331500000E-02   9.965706057E+01  -2.988818251E+01  -9.801468098E+01   9.965688518E-05
   1.331600000E-02   9.965614166E+01  -2.988790617E+01  -9.802721556E+01   9.965596204E-05
   1.331700000E-02   9.965521384E+01  -2.988762808E+01  -9.803869075E+01   9.965503216E-05
   1.331800000E-02   9.965428327E+01  -2.988734813E+01  -9.804915358E+01   9.965410106E-05
   1.331900000E-02   9.965334654E+01  -2.988706627E+01  -9.805871771E+01   9.965316407E-05
   1.332000000E-02   9.974961756E+01  -1.493503879E+01  -9.806371423E+01   9.974943478E-05
   1.332100000E-02   9.984845059E+01  -9.981518138E-03  -9.803527833E+01   9.984827004E-05
   1.332200000E-02   9.982329020E+01  -4.185310897E+00  -9.801181095E+01   9.982311342E-05
   1.332300000E-02   9.975512825E+01  -1.487960009E+01  -9.799954133E+01   9.975494833E-05
   1.332400000E-02   9.967348954E+01  -2.748614732E+01  -9.800163968E+01   9.967330890E-05
   1.332500000E-02   9.965706184E+01  -2.988818219E+01  -9.801468508E+01   9.965688172E-05
   1.332600000E-02   9.965614001E+01  -2.988790524E+01  -9.802721751E+01   9.965596485E-05
   1.332700000E-02   9.965521708E+01  -2.988762719E+01  -9.803868847E+01   9.965503647E-05
   1.332800000E-02   9.965428174E+01  -2.988734879E+01  -9.804915435E+01   9.965410537E-05
   1.332900000E-02   9.965334355E+01  -2.988706728E+01  -9.805871711E+01   9.965316836E-05
   1.333000000E-02   9.974954336E+01  -1.494646341E+01  -9.806371650E+01   9.974936421E-05
   1.333100000E-02   9.984845427E+01  -9.981518220E-03  -9.803526758E+01   9.984827813E-05
   1.333200000E-02   9.982327584E+01  -4.187814015E+00  -9.801180250E+01   9.982310125E-05
   1.333300000E-02   9.975509646E+01  -1.488481074E+01  -9.799953278E+01   9.975491654E-05
   1.333400000E-02   9.967353372E+01  -2.747962629E+01  -9.800163418E+01   9.967335308E-05
   1.333500000E-02   9.965706202E+01  -2.988818344E+01  -9.801467966E+01   9.965688918E-05
   1.333600000E-02   9.965614051E+01  -2.988790730E+01  -9.802721081E+01   9.965596671E-05
   1.333700000E-02   9.965521688E+01  -2.988762904E+01  -9.803868469E+01   9.965503627E-05
   1.333800000E-02   9.965428137E+01  -2.988734903E+01  -9.804915072E+01   9.965410501E-05
   1.333900000E-02   9.965334939E+01  -2.988706717E+01  -9.805871934E+01   9.965316800E-05
   1.334000000E-02   9.974947309E+01  -1.495786900E+01  -9.806371114E+01   9.974929013E-05
   1.334100000E-02   9.984845790E+01  -9.981518688E-03  -9.803527777E+01   9.984827700E-05
   1.334200000E-02   9.982329810E+01  -4.184753774E+00  -9.801181196E+01   9.982312121E-05
   1.334300000E-02   9.975508747E+01  -1.488645441E+01  -9.799953188E+01   9.975490755E-05
   1.334400000E-02   9.967350196E+01  -2.748473058E+01  -9.800163546E+01   9.967332132E-05
   1.334500000E-02   9.965706929E+01  -2.988818333E+01  -9.801468483E+01   9.965688882E-05
   1.334600000E-02   9.965614778E+01  -2.988790719E+01  -9.802720942E+01   9.965596635E-05
   1.334700000E-02   9.965521864E+01  -2.988762914E+01  -9.803867912E+01   9.965503661E-05
   1.334800000E-02   9.965428808E+01  -2.988734918E+01  -9.804914515E+01   9.965410552E-05
   1.334900000E-02   9.965335061E+01  -2.988706866E+01  -9.805871516E+01   9.965316779E-05
   1.335000000E-02   9.974939958E+01  -1.496918648E+01  -9.806371339E+01   9.974921662E-05
   1.335100000E-02   9.984845872E+01  -9.981518770E-03  -9.803526416E+01   9.984827781E-05
   1.335200000E-02   9.982328374E+01  -4.187242361E+00  -9.801179817E+01   9.982310686E-05
   1.335300000E-02   9.975510889E+01  -1.488334850E+01  -9.799953175E+01   9.975492897E-05
   1.335400000E-02   9.967347020E+01  -2.748982466E+01  -9.800163446E+01   9.967328956E-05
   1.335500000E-02   9.965706979E+01  -2.988818348E+01  -9.801467287E+01   9.965688932E-05
   1.335600000E-02   9.965614758E+01  -2.988790713E+01  -9.802721067E+01   9.965596615E-05
   1.335700000E-02   9.965521828E+01  -2.988762903E+01  -9.803868351E+01   9.965504217E-05
   1.335800000E-02   9.965428772E+01  -2.988734908E+01  -9.804914916E+01   9.965410651E-05
   1.335900000E-02   9.965335096E+01  -2.988706876E+01  -9.805871171E+01   9.965316814E-05
   1.336000000E-02   9.974977708E+01  -1.491106701E+01  -9.806370183E+01   9.974959777E-05
   1.336100000E-02   9.984845757E+01  -9.981518656E-03  -9.803527910E+01   9.984827668E-05
   1.336200000E-02   9.982327968E+01  -4.188058015E+00  -9.801179578E+01   9.982310280E-05
   1.336300000E-02   9.975507711E+01  -1.488852715E+01  -9.799952854E+01   9.975489718E-05
   1.336400000E-02   9.967351437E+01  -2.748327436E+01  -9.800162896E+01   9.967333373E-05
   1.336500000E-02   9.965706943E+01  -2.988818409E+01  -9.801467518E+01   9.965688896E-05
   1.336600000E-02   9.965614792E+01  -2.988790723E+01  -9.802720612E+01   9.965596649E-05
   1.336700000E-02   9.965521879E+01  -2.988762918E+01  -9.803867121E+01   9.965504267E-05
   1.336800000E-02   9.965428752E+01  -2.988735057E+01  -9.804914375E+01   9.965410631E-05
   1.336900000E-02   9.965335059E+01  -2.988706901E+01  -9.805871394E+01   9.965317369E-05
   1.337000000E-02   9.974925578E+01  -1.499191051E+01  -9.806371411E+01   9.974907266E-05
   1.337100000E-02   9.984846126E+01  -9.981518738E-03  -9.803526359E+01   9.984827749E-05
   1.337200000E-02   9.982328936E+01  -4.186642861E+00  -9.801179919E+01   9.982311247E-05
   1.337300000E-02   9.975512132E+01  -1.488184768E+01  -9.799952766E+01   9.975494140E-05
   1.337400000E-02   9.967348261E+01  -2.748835003E+01  -9.800163291E+01   9.967330198E-05
   1.337500000E-02   9.965706993E+01  -2.988818543E+01  -9.801466800E+01   9.965688946E-05
   1.337600000E-02   9.965614772E+01  -2.988790908E+01  -9.802720258E+01   9.965597221E-05
   1.337700000E-02   9.965522463E+01  -2.988763098E+01  -9.803867417E+01   9.965504367E-05
   1.337800000E-02   9.965428929E+01  -2.988735103E+01  -9.804913996E+01   9.965411257E-05
   1.337900000E-02   9.965335110E+01  -2.988706916E+01  -9.805870265E+01   9.965317556E-05
   1.338000000E-02   9.974963331E+01  -1.493379103E+01  -9.806369872E+01   9.974945380E-05
   1.338100000E-02   9.984846012E+01  -9.981518624E-03  -9.803527854E+01   9.984828363E-05
   1.338200000E-02   9.982328530E+01  -4.187444999E+00  -9.801179680E+01   9.982311060E-05
   1.338300000E-02   9.975508953E+01  -1.488700888E+01  -9.799952445E+01   9.975490961E-05
   1.338400000E-02   9.967352679E+01  -2.748178190E+01  -9.800162473E+01   9.967334615E-05
   1.338500000E-02   9.965706957E+01  -2.988818532E+01  -9.801467316E+01   9.965689182E-05
   1.338600000E-02   9.965614806E+01  -2.988790918E+01  -9.802719803E+01   9.965597255E-05
   1.338700000E-02   9.965522513E+01  -2.988763113E+01  -9.803866806E+01   9.965504417E-05
   1.338800000E-02   9.965428909E+01  -2.988735097E+01  -9.804914218E+01   9.965411237E-05
   1.338900000E-02   9.965335073E+01  -2.988707060E+01  -9.805870631E+01   9.965317519E-05
   1.339000000E-02   9.974955961E+01  -1.494513740E+01  -9.806370098E+01   9.974938011E-05
   1.339100000E-02   9.984846570E+01  -9.981519056E-03  -9.803526493E+01   9.984828445E-05
   1.339200000E-02   9.982329726E+01  -4.186018202E+00  -9.801179715E+01   9.982312027E-05
   1.339300000E-02   9.975508054E+01  -1.488860735E+01  -9.799952126E+01   9.975490061E-05
   1.339400000E-02   9.967349503E+01  -2.748684040E+01  -9.800162374E+01   9.967331439E-05
   1.339500000E-02   9.965707239E+01  -2.988818531E+01  -9.801466893E+01   9.965689634E-05
   1.339600000E-02   9.965614770E+01  -2.988790907E+01  -9.802720142E+01   9.965597355E-05
   1.339700000E-02   9.965522477E+01  -2.988763102E+01  -9.803867245E+01   9.965504381E-05
   1.339800000E-02   9.965429563E+01  -2.988735107E+01  -9.804913840E+01   9.965411271E-05
   1.339900000E-02   9.965335816E+01  -2.988707054E+01  -9.805870833E+01   9.965317499E-05
   1.340000000E-02   9.974948952E+01  -1.495651410E+01  -9.806370324E+01   9.974930621E-05
   1.340100000E-02   9.984846652E+01  -9.981519720E-03  -9.803524941E+01   9.984828526E-05
   1.340200000E-02   9.982328290E+01  -4.188475182E+00  -9.801178641E+01   9.982310591E-05
   1.340300000E-02   9.975510196E+01  -1.488545465E+01  -9.799952342E+01   9.975492204E-05
   1.340400000E-02   9.967348985E+01  -2.748781837E+01  -9.800162438E+01   9.967330921E-05
   1.340500000E-02   9.965707734E+01  -2.988818537E+01  -9.801466636E+01   9.965689652E-05
   1.340600000E-02   9.965615583E+01  -2.988790922E+01  -9.802719472E+01   9.965597405E-05
   1.340700000E-02   9.965522599E+01  -2.988763096E+01  -9.803866867E+01   9.965504361E-05
   1.340800000E-02   9.965429527E+01  -2.988735096E+01  -9.804913477E+01   9.965411235E-05
   1.340900000E-02   9.965335851E+01  -2.988707065E+01  -9.805870345E+01   9.965317534E-05
   1.341000000E-02   9.974986703E+01  -1.489839463E+01  -9.806368786E+01   9.974968371E-05
   1.341100000E-02   9.984846538E+01  -9.981519605E-03  -9.803526437E+01   9.984828413E-05
   1.341200000E-02   9.982330287E+01  -4.185369736E+00  -9.801179816E+01   9.982312588E-05
   1.341300000E-02   9.975509298E+01  -1.488703577E+01  -9.799951717E+01   9.975491305E-05
   1.341400000E-02   9.967350745E+01  -2.748529835E+01  -9.800162219E+01   9.967332681E-05
   1.341500000E-02   9.965707515E+01  -2.988818547E+01  -9.801467089E+01   9.965689323E-05
   1.341600000E-02   9.965615343E+01  -2.988790928E+01  -9.802720175E+01   9.965597668E-05
   1.341700000E-02   9.965522336E+01  -2.988763096E+01  -9.803868142E+01   9.965504718E-05
   1.341800000E-02   9.965429266E+01  -2.988735251E+01  -9.804914580E+01   9.965411594E-05
   1.341900000E-02   9.965335569E+01  -2.988707090E+01  -9.805870691E+01   9.965317873E-05
   1.342000000E-02   9.974934193E+01  -1.497923813E+01  -9.806370013E+01   9.974916225E-05
   1.342100000E-02   9.984846620E+01  -9.981519687E-03  -9.803525361E+01   9.984828494E-05
   1.342200000E-02   9.982328851E+01  -4.187819155E+00  -9.801178971E+01   9.982311153E-05
   1.342300000E-02   9.975511439E+01  -1.488387358E+01  -9.799951933E+01   9.975493447E-05
   1.342400000E-02   9.967347569E+01  -2.749033710E+01  -9.800162615E+01   9.967329505E-05
   1.342500000E-02   9.965707748E+01  -2.988818732E+01  -9.801466149E+01   9.965689665E-05
   1.342600000E-02   9.965615527E+01  -2.988790941E+01  -9.802719600E+01   9.965597349E-05
   1.342700000E-02   9.965522597E+01  -2.988763251E+01  -9.803866749E+01   9.965504951E-05
   1.342800000E-02   9.965429541E+01  -2.988735291E+01  -9.804913321E+01   9.965411385E-05
   1.342900000E-02   9.965335865E+01  -2.988707105E+01  -9.805869582E+01   9.965318139E-05
   1.343000000E-02   9.974972326E+01  -1.492111865E+01  -9.806368857E+01   9.974953976E-05
   1.343100000E-02   9.984846506E+01  -9.981519573E-03  -9.803526570E+01   9.984828381E-05
   1.343200000E-02   9.982328445E+01  -4.188593179E+00  -9.801178198E+01   9.982310747E-05
   1.343300000E-02   9.975508260E+01  -1.488899443E+01  -9.799951384E+01   9.975490268E-05
   1.343400000E-02   9.967351987E+01  -2.748373018E+01  -9.800161797E+01   9.967333923E-05
   1.343500000E-02   9.965707712E+01  -2.988818721E+01  -9.801466666E+01   9.965689630E-05
   1.343600000E-02   9.965615561E+01  -2.988791107E+01  -9.802719145E+01   9.965597383E-05
   1.343700000E-02   9.965522648E+01  -2.988763302E+01  -9.803866139E+01   9.965505001E-05
   1.343800000E-02   9.965429521E+01  -2.988735285E+01  -9.804913542E+01   9.965411957E-05
   1.343900000E-02   9.965335828E+01  -2.988707094E+01  -9.805869948E+01   9.965318239E-05
   1.344000000E-02   9.974919813E+01  -1.500196120E+01  -9.806370466E+01   9.974901465E-05
   1.344100000E-02   9.984846874E+01  -9.981519655E-03  -9.803525496E+01   9.984828917E-05
   1.344200000E-02   9.982329413E+01  -4.187138991E+00  -9.801178768E+01   9.982311932E-05
   1.344300000E-02   9.975512681E+01  -1.488225951E+01  -9.799951829E+01   9.975494689E-05
   1.344400000E-02   9.967348811E+01  -2.748875118E+01  -9.800162193E+01   9.967330747E-05
   1.344500000E-02   9.965707709E+01  -2.988818720E+01  -9.801466721E+01   9.965689626E-05
   1.344600000E-02   9.965615525E+01  -2.988791096E+01  -9.802719626E+01   9.965597939E-05
   1.344700000E-02   9.965523232E+01  -2.988763291E+01  -9.803866578E+01   9.965505101E-05
   1.344800000E-02   9.965429698E+01  -2.988735295E+01  -9.804913164E+01   9.965411991E-05
   1.344900000E-02   9.965335879E+01  -2.988707264E+01  -9.805869438E+01   9.965318290E-05
   1.345000000E-02   9.974957566E+01  -1.494384173E+01  -9.806368928E+01   9.974939580E-05
   1.345100000E-02   9.984846956E+01  -9.981519737E-03  -9.803523944E+01   9.984829272E-05
   1.345200000E-02   9.982327977E+01  -4.189570954E+00  -9.801177694E+01   9.982310497E-05
   1.345300000E-02   9.975509503E+01  -1.488736716E+01  -9.799951509E+01   9.975491511E-05
   1.345400000E-02   9.967353228E+01  -2.748213091E+01  -9.800161147E+01   9.967335164E-05
   1.345500000E-02   9.965707726E+01  -2.988818725E+01  -9.801465986E+01   9.965689916E-05
   1.345600000E-02   9.965615575E+01  -2.988791111E+01  -9.802718814E+01   9.965597989E-05
   1.345700000E-02   9.965523212E+01  -2.988763285E+01  -9.803866200E+01   9.965505081E-05
   1.345800000E-02   9.965429662E+01  -2.988735284E+01  -9.804912802E+01   9.965411955E-05
   1.345900000E-02   9.965335843E+01  -2.988707253E+01  -9.805869662E+01   9.965318253E-05
   1.346000000E-02   9.974950165E+01  -1.495523506E+01  -9.806368773E+01   9.974932180E-05
   1.346100000E-02   9.984847319E+01  -9.981519623E-03  -9.803525439E+01   9.984829158E-05
   1.346200000E-02   9.982330203E+01  -4.186440379E+00  -9.801178869E+01   9.982312494E-05
   1.346300000E-02   9.975508604E+01  -1.488891333E+01  -9.799950884E+01   9.975490611E-05
   1.346400000E-02   9.967350052E+01  -2.748713914E+01  -9.800161542E+01   9.967331988E-05
   1.346500000E-02   9.965707975E+01  -2.988818714E+01  -9.801466502E+01   9.965690336E-05
   1.346600000E-02   9.965615540E+01  -2.988791100E+01  -9.802719296E+01   9.965598089E-05
   1.346700000E-02   9.965523246E+01  -2.988763295E+01  -9.803865786E+01   9.965505115E-05
   1.346800000E-02   9.965429712E+01  -2.988735299E+01  -9.804912245E+01   9.965412005E-05
   1.346900000E-02   9.965336443E+01  -2.988707247E+01  -9.805869244E+01   9.965318233E-05
   1.347000000E-02   9.974943188E+01  -1.496656480E+01  -9.806368998E+01   9.974924821E-05
   1.347100000E-02   9.984847401E+01  -9.981520054E-03  -9.803524364E+01   9.984829240E-05
   1.347200000E-02   9.982328767E+01  -4.188863422E+00  -9.801178024E+01   9.982311058E-05
   1.347300000E-02   9.975510746E+01  -1.488571332E+01  -9.799951100E+01   9.975492753E-05
   1.347400000E-02   9.967349535E+01  -2.748806852E+01  -9.800161607E+01   9.967331471E-05
   1.347500000E-02   9.965708026E+01  -2.988818729E+01  -9.801465499E+01   9.965690385E-05
   1.347600000E-02   9.965616210E+01  -2.988791115E+01  -9.802718006E+01   9.965598139E-05
   1.347700000E-02   9.965523369E+01  -2.988763289E+01  -9.803865886E+01   9.965505095E-05
   1.347800000E-02   9.965430296E+01  -2.988735444E+01  -9.804912645E+01   9.965411969E-05
   1.347900000E-02   9.965336620E+01  -2.988707293E+01  -9.805868898E+01   9.965318267E-05
   1.348000000E-02   9.974980938E+01  -1.490844627E+01  -9.806367842E+01   9.974962571E-05
   1.348100000E-02   9.984847287E+01  -9.981519941E-03  -9.803525573E+01   9.984829127E-05
   1.348200000E-02   9.982328361E+01  -4.189615983E+00  -9.801177251E+01   9.982310651E-05
   1.348300000E-02   9.975507567E+01  -1.489080337E+01  -9.799950551E+01   9.975489575E-05
   1.348400000E-02   9.967351294E+01  -2.748550364E+01  -9.800161388E+01   9.967333230E-05
   1.348500000E-02   9.965708468E+01  -2.988818790E+01  -9.801466015E+01   9.965690350E-05
   1.348600000E-02   9.965616317E+01  -2.988791104E+01  -9.802718487E+01   9.965598103E-05
   1.348700000E-02   9.965523403E+01  -2.988763299E+01  -9.803865472E+01   9.965505721E-05
   1.348800000E-02   9.965430276E+01  -2.988735438E+01  -9.804912867E+01   9.965412085E-05
   1.348900000E-02   9.965336583E+01  -2.988707282E+01  -9.805869264E+01   9.965318231E-05
   1.349000000E-02   9.974928428E+01  -1.498928883E+01  -9.806369450E+01   9.974910062E-05
   1.349100000E-02   9.984847369E+01  -9.981520605E-03  -9.803524498E+01   9.984829208E-05
   1.349200000E-02   9.982329329E+01  -4.188139451E+00  -9.801177821E+01   9.982311619E-05
   1.349300000E-02   9.975511988E+01  -1.488403646E+01  -9.799950997E+01   9.975493996E-05
   1.349400000E-02   9.967348118E+01  -2.749049593E+01  -9.800161516E+01   9.967330054E-05
   1.349500000E-02   9.965708517E+01  -2.988818924E+01  -9.801465297E+01   9.965690399E-05
   1.349600000E-02   9.965616297E+01  -2.988791134E+01  -9.802718753E+01   9.965598083E-05
   1.349700000E-02   9.965523367E+01  -2.988763444E+01  -9.803865911E+01   9.965505685E-05
   1.349800000E-02   9.965430310E+01  -2.988735484E+01  -9.804912488E+01   9.965412119E-05
   1.349900000E-02   9.965336634E+01  -2.988707297E+01  -9.805868755E+01   9.965318282E-05
   1.350000000E-02   9.974966179E+01  -1.493116935E+01  -9.806368294E+01   9.974948176E-05
   1.350100000E-02   9.984847255E+01  -9.981520490E-03  -9.803525517E+01   9.984829095E-05
   1.350200000E-02   9.982328923E+01  -4.188883496E+00  -9.801177353E+01   9.982311213E-05
   1.350300000E-02   9.975508810E+01  -1.488911520E+01  -9.799950676E+01   9.975490817E-05
   1.350400000E-02   9.967352536E+01  -2.748384649E+01  -9.800160965E+01   9.967334472E-05
   1.350500000E-02   9.965708482E+01  -2.988818913E+01  -9.801465813E+01   9.965690364E-05
   1.350600000E-02   9.965616331E+01  -2.988791299E+01  -9.802718299E+01   9.965598117E-05
   1.350700000E-02   9.965523417E+01  -2.988763494E+01  -9.803865300E+01   9.965505735E-05
   1.350800000E-02   9.965430290E+01  -2.988735478E+01  -9.804912090E+01   9.965412099E-05
   1.350900000E-02   9.965336598E+01  -2.988707286E+01  -9.805868979E+01   9.965318837E-05
   1.351000000E-02   9.974958817E+01  -1.494250346E+01  -9.806368138E+01   9.974940814E-05
   1.351100000E-02   9.984847337E+01  -9.981520573E-03  -9.803524442E+01   9.984829176E-05
   1.351200000E-02   9.982329890E+01  -4.187400383E+00  -9.801177922E+01   9.982312181E-05
   1.351300000E-02   9.975513231E+01  -1.488233981E+01  -9.799951122E+01   9.975495239E-05
   1.351400000E-02   9.967349360E+01  -2.748882800E+01  -9.800161362E+01   9.967331296E-05
   1.351500000E-02   9.965708478E+01  -2.988818912E+01  -9.801465391E+01   9.965690360E-05
   1.351600000E-02   9.965616295E+01  -2.988791288E+01  -9.802718638E+01   9.965598081E-05
   1.351700000E-02   9.965523381E+01  -2.988763483E+01  -9.803865739E+01   9.965505699E-05
   1.351800000E-02   9.965430325E+01  -2.988735488E+01  -9.804911712E+01   9.965412725E-05
   1.351900000E-02   9.965336577E+01  -2.988707435E+01  -9.805869182E+01   9.965318953E-05
   1.352000000E-02   9.974951801E+01  -1.495389242E+01  -9.806367983E+01   9.974933417E-05
   1.352100000E-02   9.984847705E+01  -9.981520655E-03  -9.803523367E+01   9.984829713E-05
   1.352200000E-02   9.982328454E+01  -4.189804661E+00  -9.801177077E+01   9.982310963E-05
   1.352300000E-02   9.975510053E+01  -1.488740739E+01  -9.799950801E+01   9.975492060E-05
   1.352400000E-02   9.967348841E+01  -2.748973323E+01  -9.800160930E+01   9.967330777E-05
   1.352500000E-02   9.965708495E+01  -2.988818918E+01  -9.801465134E+01   9.965690378E-05
   1.352600000E-02   9.965616345E+01  -2.988791303E+01  -9.802717968E+01   9.965598131E-05
   1.352700000E-02   9.965523361E+01  -2.988763477E+01  -9.803865361E+01   9.965505679E-05
   1.352800000E-02   9.965430288E+01  -2.988735477E+01  -9.804911969E+01   9.965412688E-05
   1.352900000E-02   9.965336612E+01  -2.988707446E+01  -9.805868215E+01   9.965318987E-05
   1.353000000E-02   9.974944370E+01  -1.496533271E+01  -9.806368211E+01   9.974926350E-05
   1.353100000E-02   9.984847591E+01  -9.981520540E-03  -9.803524862E+01   9.984829872E-05
   1.353200000E-02   9.982330452E+01  -4.186646897E+00  -9.801178252E+01   9.982312960E-05
   1.353300000E-02   9.975509154E+01  -1.488891595E+01  -9.799950177E+01   9.975491162E-05
   1.353400000E-02   9.967350601E+01  -2.748714157E+01  -9.800160711E+01   9.967332538E-05
   1.353500000E-02   9.965708460E+01  -2.988818907E+01  -9.801465650E+01   9.965690342E-05
   1.353600000E-02   9.965616309E+01  -2.988791293E+01  -9.802718449E+01   9.965598687E-05
   1.353700000E-02   9.965524015E+01  -2.988763488E+01  -9.803864947E+01   9.965505849E-05
   1.353800000E-02   9.965430482E+01  -2.988735492E+01  -9.804911412E+01   9.965412739E-05
   1.353900000E-02   9.965336592E+01  -2.988707440E+01  -9.805868418E+01   9.965318967E-05
   1.354000000E-02   9.974937041E+01  -1.497661550E+01  -9.806368435E+01   9.974919021E-05
   1.354100000E-02   9.984847673E+01  -9.981520623E-03  -9.803523501E+01   9.984829953E-05
   1.354200000E-02   9.982329016E+01  -4.189044903E+00  -9.801177407E+01   9.982311524E-05
   1.354300000E-02   9.975511295E+01  -1.488568051E+01  -9.799950393E+01   9.975493303E-05
   1.354400000E-02   9.967347425E+01  -2.749210782E+01  -9.800161107E+01   9.967329362E-05
   1.354500000E-02   9.965708509E+01  -2.988818922E+01  -9.801464647E+01   9.965690664E-05
   1.354600000E-02   9.965616289E+01  -2.988791287E+01  -9.802718716E+01   9.965598667E-05
   1.354700000E-02   9.965523979E+01  -2.988763477E+01  -9.803865386E+01   9.965505813E-05
   1.354800000E-02   9.965430445E+01  -2.988735481E+01  -9.804911813E+01   9.965412703E-05
   1.354900000E-02   9.965336626E+01  -2.988707450E+01  -9.805868072E+01   9.965319001E-05
   1.355000000E-02   9.974974793E+01  -1.491849601E+01  -9.806367279E+01   9.974956771E-05
   1.355100000E-02   9.984848036E+01  -9.981520508E-03  -9.803524996E+01   9.984829840E-05
   1.355200000E-02   9.982328838E+01  -4.189772802E+00  -9.801176634E+01   9.982311118E-05
   1.355300000E-02   9.975508117E+01  -1.489073607E+01  -9.799949843E+01   9.975490124E-05
   1.355400000E-02   9.967351843E+01  -2.748543607E+01  -9.800160556E+01   9.967333779E-05
   1.355500000E-02   9.965708474E+01  -2.988818911E+01  -9.801465163E+01   9.965691083E-05
   1.355600000E-02   9.965616323E+01  -2.988791297E+01  -9.802717641E+01   9.965598837E-05
   1.355700000E-02   9.965524029E+01  -2.988763492E+01  -9.803864633E+01   9.965505863E-05
   1.355800000E-02   9.965430425E+01  -2.988735475E+01  -9.804912035E+01   9.965412683E-05
   1.355900000E-02   9.965336590E+01  -2.988707439E+01  -9.805868438E+01   9.965318965E-05
   1.356000000E-02   9.974922281E+01  -1.499933857E+01  -9.806368887E+01   9.974904262E-05
   1.356100000E-02   9.984848118E+01  -9.981520590E-03  -9.803523921E+01   9.984829922E-05
   1.356200000E-02   9.982329806E+01  -4.188273066E+00  -9.801177204E+01   9.982312086E-05
   1.356300000E-02   9.975512538E+01  -1.488393646E+01  -9.799950289E+01   9.975494546E-05
   1.356400000E-02   9.967348667E+01  -2.749039536E+01  -9.800160952E+01   9.967330604E-05
   1.356500000E-02   9.965708755E+01  -2.988818910E+01  -9.801465218E+01   9.965691080E-05
   1.356600000E-02   9.965616287E+01  -2.988791286E+01  -9.802718122E+01   9.965598801E-05
   1.356700000E-02   9.965523993E+01  -2.988763481E+01  -9.803865072E+01   9.965505827E-05
   1.356800000E-02   9.965430459E+01  -2.988735640E+01  -9.804911656E+01   9.965412717E-05
   1.356900000E-02   9.965337260E+01  -2.988707490E+01  -9.805867929E+01   9.965319016E-05
   1.357000000E-02   9.974960414E+01  -1.494122004E+01  -9.806367731E+01   9.974942012E-05
   1.357100000E-02   9.984848200E+01  -9.981520673E-03  -9.803522369E+01   9.984830003E-05
   1.357200000E-02   9.982328370E+01  -4.190662532E+00  -9.801176130E+01   9.982310650E-05
   1.357300000E-02   9.975509359E+01  -1.488898425E+01  -9.799949969E+01   9.975491367E-05
   1.357400000E-02   9.967353085E+01  -2.748371599E+01  -9.800160134E+01   9.967335021E-05
   1.357500000E-02   9.965708773E+01  -2.988818987E+01  -9.801464961E+01   9.965691097E-05
   1.357600000E-02   9.965616957E+01  -2.988791301E+01  -9.802717453E+01   9.965598851E-05
   1.357700000E-02   9.965524116E+01  -2.988763475E+01  -9.803865315E+01   9.965505807E-05
   1.357800000E-02   9.965431043E+01  -2.988735630E+01  -9.804912057E+01   9.965412681E-05
   1.357900000E-02   9.965337367E+01  -2.988707479E+01  -9.805868295E+01   9.965318979E-05
   1.358000000E-02   9.974953022E+01  -1.495260111E+01  -9.806367576E+01   9.974934620E-05
   1.358100000E-02   9.984848086E+01  -9.981520558E-03  -9.803523865E+01   9.984829890E-05
   1.358200000E-02   9.982330368E+01  -4.187489826E+00  -9.801177305E+01   9.982312647E-05
   1.358300000E-02   9.975508460E+01  -1.489047283E+01  -9.799949878E+01   9.975490468E-05
   1.358400000E-02   9.967349909E+01  -2.748866697E+01  -9.800160530E+01   9.967331845E-05
   1.358500000E-02   9.965708737E+01  -2.988818976E+01  -9.801465478E+01   9.965691062E-05
   1.358600000E-02   9.965616921E+01  -2.988791290E+01  -9.802717934E+01   9.965598815E-05
   1.358700000E-02   9.965524150E+01  -2.988763485E+01  -9.803864900E+01   9.965505841E-05
   1.358800000E-02   9.965431094E+01  -2.988735645E+01  -9.804910880E+01   9.965412731E-05
   1.358900000E-02   9.965337347E+01  -2.988707473E+01  -9.805868355E+01   9.965318959E-05
   1.359000000E-02   9.974945655E+01  -1.496394312E+01  -9.806367802E+01   9.974927253E-05
   1.359100000E-02   9.984848168E+01  -9.981520640E-03  -9.803522790E+01   9.984829971E-05
   1.359200000E-02   9.982328931E+01  -4.189874007E+00  -9.801176460E+01   9.982311211E-05
   1.359300000E-02   9.975510602E+01  -1.488721702E+01  -9.799950094E+01   9.975492610E-05
   1.359400000E-02   9.967349391E+01  -2.748954202E+01  -9.800160595E+01   9.967331328E-05
   1.359500000E-02   9.965709265E+01  -2.988819110E+01  -9.801464759E+01   9.965691111E-05
   1.359600000E-02   9.965617114E+01  -2.988791341E+01  -9.802717265E+01   9.965598865E-05
   1.359700000E-02   9.965524130E+01  -2.988763634E+01  -9.803865143E+01   9.965505821E-05
   1.359800000E-02   9.965431058E+01  -2.988735670E+01  -9.804911280E+01   9.965412695E-05
   1.359900000E-02   9.965337381E+01  -2.988707483E+01  -9.805868009E+01   9.965318993E-05
   1.360000000E-02   9.974983405E+01  -1.490582363E+01  -9.806366264E+01   9.974965003E-05
   1.360100000E-02   9.984848054E+01  -9.981520876E-03  -9.803524285E+01   9.984829858E-05
   1.360200000E-02   9.982330929E+01  -4.186696192E+00  -9.801177635E+01   9.982313209E-05
   1.360300000E-02   9.975509704E+01  -1.488869632E+01  -9.799950003E+01   9.975491712E-05
   1.360400000E-02   9.967351151E+01  -2.748692524E+01  -9.800160375E+01   9.967333087E-05
   1.360500000E-02   9.965709229E+01  -2.988819100E+01  -9.801465276E+01   9.965691076E-05
   1.360600000E-02   9.965617078E+01  -2.988791485E+01  -9.802717746E+01   9.965598829E-05
   1.360700000E-02   9.965524164E+01  -2.988763680E+01  -9.803864729E+01   9.965506447E-05
   1.360800000E-02   9.965431037E+01  -2.988735663E+01  -9.804911501E+01   9.965412810E-05
   1.360900000E-02   9.965337345E+01  -2.988707472E+01  -9.805868376E+01   9.965318957E-05
   1.361000000E-02   9.974930895E+01  -1.498666620E+01  -9.806367872E+01   9.974912857E-05
   1.361100000E-02   9.984848136E+01  -9.981520957E-03  -9.803523210E+01   9.984829939E-05
   1.361200000E-02   9.982329493E+01  -4.189075418E+00  -9.801176791E+01   9.982311773E-05
   1.361300000E-02   9.975511845E+01  -1.488543483E+01  -9.799950219E+01   9.975493853E-05
   1.361400000E-02   9.967347975E+01  -2.749186602E+01  -9.800160771E+01   9.967329911E-05
   1.361500000E-02   9.965709278E+01  -2.988819114E+01  -9.801464080E+01   9.965691125E-05
   1.361600000E-02   9.965617058E+01  -2.988791479E+01  -9.802717870E+01   9.965598809E-05
   1.361700000E-02   9.965524128E+01  -2.988763669E+01  -9.803864547E+01   9.965506411E-05
   1.361800000E-02   9.965431072E+01  -2.988735674E+01  -9.804910981E+01   9.965412845E-05
   1.361900000E-02   9.965337395E+01  -2.988707487E+01  -9.805867246E+01   9.965319008E-05
   1.362000000E-02   9.974968646E+01  -1.492854671E+01  -9.806366716E+01   9.974950608E-05
   1.362100000E-02   9.984848022E+01  -9.981520844E-03  -9.803524419E+01   9.984829826E-05
   1.362200000E-02   9.982329087E+01  -4.189784978E+00  -9.801176552E+01   9.982311367E-05
   1.362300000E-02   9.975508666E+01  -1.489046397E+01  -9.799949899E+01   9.975490674E-05
   1.362400000E-02   9.967352392E+01  -2.748516824E+01  -9.800159725E+01   9.967334328E-05
   1.362500000E-02   9.965709243E+01  -2.988819104E+01  -9.801464596E+01   9.965691090E-05
   1.362600000E-02   9.965617092E+01  -2.988791489E+01  -9.802717415E+01   9.965598843E-05
   1.362700000E-02   9.965524178E+01  -2.988763685E+01  -9.803863937E+01   9.965506461E-05
   1.362800000E-02   9.965431052E+01  -2.988735668E+01  -9.804911202E+01   9.965412825E-05
   1.362900000E-02   9.965337359E+01  -2.988707632E+01  -9.805867612E+01   9.965318971E-05
   1.363000000E-02   9.974961292E+01  -1.493986856E+01  -9.806366941E+01   9.974943254E-05
   1.363100000E-02   9.984848104E+01  -9.981520926E-03  -9.803523344E+01   9.984829907E-05
   1.363200000E-02   9.982330054E+01  -4.188268104E+00  -9.801177121E+01   9.982312334E-05
   1.363300000E-02   9.975513087E+01  -1.488364091E+01  -9.799949811E+01   9.975495096E-05
   1.363400000E-02   9.967349216E+01  -2.749010397E+01  -9.800160121E+01   9.967331153E-05
   1.363500000E-02   9.965709239E+01  -2.988819103E+01  -9.801464651E+01   9.965691086E-05
   1.363600000E-02   9.965617056E+01  -2.988791479E+01  -9.802717897E+01   9.965598807E-05
   1.363700000E-02   9.965524142E+01  -2.988763674E+01  -9.803864376E+01   9.965506425E-05
   1.363800000E-02   9.965431086E+01  -2.988735678E+01  -9.804910824E+01   9.965412859E-05
   1.363900000E-02   9.965337339E+01  -2.988707626E+01  -9.805867815E+01   9.965319543E-05
   1.364000000E-02   9.974953886E+01  -1.495126979E+01  -9.806367168E+01   9.974935848E-05
   1.364100000E-02   9.984848186E+01  -9.981521007E-03  -9.803522270E+01   9.984829989E-05
   1.364200000E-02   9.982328618E+01  -4.190641092E+00  -9.801175742E+01   9.982310898E-05
   1.364300000E-02   9.975509909E+01  -1.488866418E+01  -9.799949261E+01   9.975491917E-05
   1.364400000E-02   9.967348697E+01  -2.749096383E+01  -9.800160185E+01   9.967330634E-05
   1.364500000E-02   9.965709257E+01  -2.988819108E+01  -9.801464394E+01   9.965691103E-05
   1.364600000E-02   9.965617106E+01  -2.988791494E+01  -9.802717227E+01   9.965598857E-05
   1.364700000E-02   9.965524122E+01  -2.988763668E+01  -9.803864618E+01   9.965506405E-05
   1.364800000E-02   9.965431050E+01  -2.988735667E+01  -9.804911225E+01   9.965413414E-05
   1.364900000E-02   9.965337373E+01  -2.988707636E+01  -9.805867469E+01   9.965319713E-05
   1.365000000E-02   9.974946845E+01  -1.496269782E+01  -9.806367396E+01   9.974928425E-05
   1.365100000E-02   9.984848072E+01  -9.981521475E-03  -9.803523764E+01   9.984829876E-05
   1.365200000E-02   9.982330616E+01  -4.187452074E+00  -9.801176917E+01   9.982312896E-05
   1.365300000E-02   9.975509010E+01  -1.489013042E+01  -9.799949171E+01   9.975491018E-05
   1.365400000E-02   9.967350458E+01  -2.748832981E+01  -9.800159966E+01   9.967332394E-05
   1.365500000E-02   9.965709221E+01  -2.988819097E+01  -9.801464625E+01   9.965691068E-05
   1.365600000E-02   9.965617070E+01  -2.988791483E+01  -9.802717088E+01   9.965598821E-05
   1.365700000E-02   9.965524156E+01  -2.988763678E+01  -9.803864061E+01   9.965506439E-05
   1.365800000E-02   9.965431100E+01  -2.988735682E+01  -9.804910667E+01   9.965413465E-05
   1.365900000E-02   9.965337353E+01  -2.988707630E+01  -9.805867671E+01   9.965319693E-05
   1.366000000E-02   9.974939508E+01  -1.497399286E+01  -9.806367620E+01   9.974921089E-05
   1.366100000E-02   9.984848440E+01  -9.981521558E-03  -9.803522690E+01   9.984830412E-05
   1.366200000E-02   9.982329180E+01  -4.189821098E+00  -9.801176072E+01   9.982311678E-05
   1.366300000E-02   9.975511152E+01  -1.488685281E+01  -9.799949386E+01   9.975493160E-05
   1.366400000E-02   9.967347282E+01  -2.749325723E+01  -9.800160362E+01   9.967329219E-05
   1.366500000E-02   9.965709271E+01  -2.988819112E+01  -9.801463907E+01   9.965691117E-05
   1.366600000E-02   9.965617050E+01  -2.988791477E+01  -9.802717354E+01   9.965598801E-05
   1.366700000E-02   9.965524120E+01  -2.988763667E+01  -9.803864500E+01   9.965506403E-05
   1.366800000E-02   9.965431064E+01  -2.988735671E+01  -9.804911068E+01   9.965413429E-05
   1.366900000E-02   9.965337387E+01  -2.988707640E+01  -9.805867326E+01   9.965319727E-05
   1.367000000E-02   9.974977260E+01  -1.491587338E+01  -9.806366464E+01   9.974958840E-05
   1.367100000E-02   9.984848326E+01  -9.981521443E-03  -9.803523708E+01   9.984830298E-05
   1.367200000E-02   9.982328773E+01  -4.190521159E+00  -9.801175604E+01   9.982311271E-05
   1.367300000E-02   9.975507973E+01  -1.489186831E+01  -9.799949066E+01   9.975489981E-05
   1.367400000E-02   9.967351700E+01  -2.748654611E+01  -9.800159811E+01   9.967333636E-05
   1.367500000E-02   9.965709235E+01  -2.988819101E+01  -9.801464423E+01   9.965691082E-05
   1.367600000E-02   9.965617084E+01  -2.988791487E+01  -9.802716900E+01   9.965599427E-05
   1.367700000E-02   9.965524170E+01  -2.988763682E+01  -9.803863890E+01   9.965506589E-05
   1.367800000E-02   9.965431044E+01  -2.988735665E+01  -9.804911290E+01   9.965413409E-05
   1.367900000E-02   9.965337351E+01  -2.988707629E+01  -9.805867692E+01   9.965319691E-05
   1.368000000E-02   9.974924748E+01  -1.499671594E+01  -9.806368072E+01   9.974906694E-05
   1.368100000E-02   9.984848408E+01  -9.981521525E-03  -9.803522633E+01   9.984830653E-05
   1.368200000E-02   9.982329741E+01  -4.188994056E+00  -9.801176174E+01   9.982312239E-05
   1.368300000E-02   9.975512394E+01  -1.488503042E+01  -9.799949512E+01   9.975494402E-05
   1.368400000E-02   9.967348524E+01  -2.749146781E+01  -9.800160207E+01   9.967330460E-05
   1.368500000E-02   9.965709285E+01  -2.988819116E+01  -9.801463705E+01   9.965691131E-05
   1.368600000E-02   9.965617064E+01  -2.988791481E+01  -9.802717166E+01   9.965599407E-05
   1.368700000E-02   9.965524134E+01  -2.988763671E+01  -9.803864329E+01   9.965506553E-05
   1.368800000E-02   9.965431078E+01  -2.988735676E+01  -9.804910911E+01   9.965413443E-05
   1.368900000E-02   9.965337402E+01  -2.988707644E+01  -9.805867183E+01   9.965319742E-05
   1.369000000E-02   9.974962500E+01  -1.493859645E+01  -9.806366534E+01   9.974944444E-05
   1.369100000E-02   9.984848367E+01  -9.981521485E-03  -9.803523164E+01   9.984830613E-05
   1.369200000E-02   9.982329335E+01  -4.189689603E+00  -9.801175935E+01   9.982311834E-05
   1.369300000E-02   9.975509216E+01  -1.489004167E+01  -9.799949191E+01   9.975491224E-05
   1.369400000E-02   9.967352942E+01  -2.748475221E+01  -9.800159656E+01   9.967334877E-05
   1.369500000E-02   9.965709249E+01  -2.988819106E+01  -9.801464222E+01   9.965691096E-05
   1.369600000E-02   9.965617098E+01  -2.988791491E+01  -9.802716711E+01   9.965599441E-05
   1.369700000E-02   9.965524735E+01  -2.988763665E+01  -9.803864572E+01   9.965506533E-05
   1.369800000E-02   9.965431184E+01  -2.988735665E+01  -9.804911312E+01   9.965413407E-05
   1.369900000E-02   9.965337365E+01  -2.988707633E+01  -9.805867549E+01   9.965319705E-05
   1.370000000E-02   9.974955115E+01  -1.494996526E+01  -9.806366761E+01   9.974937060E-05
   1.370100000E-02   9.984848376E+01  -9.981521493E-03  -9.803523053E+01   9.984830621E-05
   1.370200000E-02   9.982330303E+01  -4.188160305E+00  -9.801176504E+01   9.982312801E-05
   1.370300000E-02   9.975508317E+01  -1.489149599E+01  -9.799949101E+01   9.975490324E-05
   1.370400000E-02   9.967349766E+01  -2.748966885E+01  -9.800159785E+01   9.967331702E-05
   1.370500000E-02   9.965709213E+01  -2.988819095E+01  -9.801464738E+01   9.965691331E-05
   1.370600000E-02   9.965617062E+01  -2.988791481E+01  -9.802717193E+01   9.965599405E-05
   1.370700000E-02   9.965524769E+01  -2.988763676E+01  -9.803864157E+01   9.965506567E-05
   1.370800000E-02   9.965431235E+01  -2.988735835E+01  -9.804910135E+01   9.965413457E-05
   1.370900000E-02   9.965337345E+01  -2.988707663E+01  -9.805867609E+01   9.965319685E-05
   1.371000000E-02   9.974947740E+01  -1.496132048E+01  -9.806366987E+01   9.974929685E-05
   1.371100000E-02   9.984848457E+01  -9.981521575E-03  -9.803521978E+01   9.984830702E-05
   1.371200000E-02   9.982328866E+01  -4.190521101E+00  -9.801175659E+01   9.982311365E-05
   1.371300000E-02   9.975510459E+01  -1.488820579E+01  -9.799949316E+01   9.975492466E-05
   1.371400000E-02   9.967349248E+01  -2.749051189E+01  -9.800159850E+01   9.967331184E-05
   1.371500000E-02   9.965709263E+01  -2.988819110E+01  -9.801464020E+01   9.965691382E-05
   1.371600000E-02   9.965617112E+01  -2.988791496E+01  -9.802716523E+01   9.965599455E-05
   1.371700000E-02   9.965524749E+01  -2.988763670E+01  -9.803864400E+01   9.965506547E-05
   1.371800000E-02   9.965431198E+01  -2.988735824E+01  -9.804910535E+01   9.965413421E-05
   1.371900000E-02   9.965337379E+01  -2.988707673E+01  -9.805867263E+01   9.965319719E-05
   1.372000000E-02   9.974985492E+01  -1.490320099E+01  -9.806365449E+01   9.974967435E-05
   1.372100000E-02   9.984848820E+01  -9.981521461E-03  -9.803523474E+01   9.984830589E-05
   1.372200000E-02   9.982331094E+01  -4.187320184E+00  -9.801176834E+01   9.982313363E-05
   1.372300000E-02   9.975509560E+01  -1.488965420E+01  -9.799949226E+01   9.975491568E-05
   1.372400000E-02   9.967351007E+01  -2.748786227E+01  -9.800159630E+01   9.967332943E-05
   1.372500000E-02   9.965709227E+01  -2.988819170E+01  -9.801464536E+01   9.965691346E-05
   1.372600000E-02   9.965617076E+01  -2.988791485E+01  -9.802717005E+01   9.965599419E-05
   1.372700000E-02   9.965524783E+01  -2.988763680E+01  -9.803863985E+01   9.965506581E-05
   1.372800000E-02   9.965431178E+01  -2.988735818E+01  -9.804910757E+01   9.965413401E-05
   1.372900000E-02   9.965337343E+01  -2.988707662E+01  -9.805867629E+01   9.965319683E-05
   1.373000000E-02   9.974932980E+01  -1.498404356E+01  -9.806367057E+01   9.974914925E-05
   1.373100000E-02   9.984848902E+01  -9.981521543E-03  -9.803522399E+01   9.984830671E-05
   1.373200000E-02   9.982329657E+01  -4.189678007E+00  -9.801175989E+01   9.982311926E-05
   1.373300000E-02   9.975511701E+01  -1.488636184E+01  -9.799949442E+01   9.975493709E-05
   1.373400000E-02   9.967347831E+01  -2.749277443E+01  -9.800160026E+01   9.967329768E-05
   1.373500000E-02   9.965709277E+01  -2.988819185E+01  -9.801463818E+01   9.965691851E-05
   1.373600000E-02   9.965617056E+01  -2.988791479E+01  -9.802717271E+01   9.965599535E-05
   1.373700000E-02   9.965524747E+01  -2.988763669E+01  -9.803864424E+01   9.965506545E-05
   1.373800000E-02   9.965431213E+01  -2.988735828E+01  -9.804910378E+01   9.965413435E-05
   1.373900000E-02   9.965337394E+01  -2.988707678E+01  -9.805867120E+01   9.965319734E-05
   1.374000000E-02   9.974970732E+01  -1.492592407E+01  -9.806365901E+01   9.974952675E-05
   1.374100000E-02   9.984848788E+01  -9.981521429E-03  -9.803523894E+01   9.984830557E-05
   1.374200000E-02   9.982329251E+01  -4.190366715E+00  -9.801175750E+01   9.982311520E-05
   1.374300000E-02   9.975508523E+01  -1.489136194E+01  -9.799949121E+01   9.975490530E-05
   1.374400000E-02   9.967352249E+01  -2.748604739E+01  -9.800159475E+01   9.967334185E-05
   1.374500000E-02   9.965709241E+01  -2.988819175E+01  -9.801464334E+01   9.965691816E-05
   1.374600000E-02   9.965617090E+01  -2.988791489E+01  -9.802716816E+01   9.965599569E-05
   1.374700000E-02   9.965524797E+01  -2.988763684E+01  -9.803863814E+01   9.965506595E-05
   1.374800000E-02   9.965431193E+01  -2.988735822E+01  -9.804910600E+01   9.965413415E-05
   1.374900000E-02   9.965337357E+01  -2.988707667E+01  -9.805866866E+01   9.965319697E-05
   1.375000000E-02   9.974963767E+01  -1.493723366E+01  -9.806366126E+01   9.974945330E-05
   1.375100000E-02   9.984848870E+01  -9.981521511E-03  -9.803522819E+01   9.984830639E-05
   1.375200000E-02   9.982330219E+01  -4.188829879E+00  -9.801176320E+01   9.982312488E-05
   1.375300000E-02   9.975512944E+01  -1.488451042E+01  -9.799949567E+01   9.975494952E-05
   1.375400000E-02   9.967349073E+01  -2.749095574E+01  -9.800159871E+01   9.967331009E-05
   1.375500000E-02   9.965709522E+01  -2.988819173E+01  -9.801464389E+01   9.965691812E-05
   1.375600000E-02   9.965617054E+01  -2.988791478E+01  -9.802717298E+01   9.965599533E-05
   1.375700000E-02   9.965524761E+01  -2.988763673E+01  -9.803863632E+01   9.965506559E-05
   1.375800000E-02   9.965431227E+01  -2.988735833E+01  -9.804910079E+01   9.965413449E-05
   1.375900000E-02   9.965338028E+01  -2.988707682E+01  -9.805866356E+01   9.965319748E-05
   1.376000000E-02   9.974956354E+01  -1.494864715E+01  -9.806366353E+01   9.974937916E-05
   1.376100000E-02   9.984848952E+01  -9.981521593E-03  -9.803521458E+01   9.984830720E-05
   1.376200000E-02   9.982328782E+01  -4.191183758E+00  -9.801175475E+01   9.982311052E-05
   1.376300000E-02   9.975509766E+01  -1.488950670E+01  -9.799949247E+01   9.975491773E-05
   1.376400000E-02   9.967353491E+01  -2.748422555E+01  -9.800159320E+01   9.967335427E-05
   1.376500000E-02   9.965709540E+01  -2.988819298E+01  -9.801463655E+01   9.965691829E-05
   1.376600000E-02   9.965617104E+01  -2.988791529E+01  -9.802716485E+01   9.965599583E-05
   1.376700000E-02   9.965524741E+01  -2.988763822E+01  -9.803863875E+01   9.965506539E-05
   1.376800000E-02   9.965431190E+01  -2.988735857E+01  -9.804910480E+01   9.965413413E-05
   1.376900000E-02   9.965337992E+01  -2.988707671E+01  -9.805866723E+01   9.965319711E-05
   1.377000000E-02   9.974948939E+01  -1.496006292E+01  -9.806366580E+01   9.974930501E-05
   1.377100000E-02   9.984848838E+01  -9.981521479E-03  -9.803522953E+01   9.984830607E-05
   1.377200000E-02   9.982330780E+01  -4.187976387E+00  -9.801176650E+01   9.982313049E-05
   1.377300000E-02   9.975508867E+01  -1.489094672E+01  -9.799949156E+01   9.975490874E-05
   1.377400000E-02   9.967350315E+01  -2.748913008E+01  -9.800159716E+01   9.967332251E-05
   1.377500000E-02   9.965709504E+01  -2.988819287E+01  -9.801464170E+01   9.965691794E-05
   1.377600000E-02   9.965617068E+01  -2.988791673E+01  -9.802716967E+01   9.965599547E-05
   1.377700000E-02   9.965524775E+01  -2.988763868E+01  -9.803863461E+01   9.965506573E-05
   1.377800000E-02   9.965431861E+01  -2.988735873E+01  -9.804909923E+01   9.965413463E-05
   1.377900000E-02   9.965338114E+01  -2.988707665E+01  -9.805866925E+01   9.965319691E-05
   1.378000000E-02   9.974941594E+01  -1.497137023E+01  -9.806366805E+01   9.974923157E-05
   1.378100000E-02   9.984848920E+01  -9.981521561E-03  -9.803521878E+01   9.984830688E-05
   1.378200000E-02   9.982329344E+01  -4.190327954E+00  -9.801175805E+01   9.982311613E-05
   1.378300000E-02   9.975511008E+01  -1.488764397E+01  -9.799949372E+01   9.975493016E-05
   1.378400000E-02   9.967347139E+01  -2.749403270E+01  -9.800160113E+01   9.967329075E-05
   1.378500000E-02   9.965709555E+01  -2.988819302E+01  -9.801463453E+01   9.965691843E-05
   1.378600000E-02   9.965617669E+01  -2.988791667E+01  -9.802717234E+01   9.965599527E-05
   1.378700000E-02   9.965524881E+01  -2.988763857E+01  -9.803863899E+01   9.965506537E-05
   1.378800000E-02   9.965431825E+01  -2.988735862E+01  -9.804910323E+01   9.965413427E-05
   1.378900000E-02   9.965338149E+01  -2.988707675E+01  -9.805866579E+01   9.965319726E-05
   1.379000000E-02   9.974979345E+01  -1.491325074E+01  -9.806365649E+01   9.974960907E-05
   1.379100000E-02   9.984848806E+01  -9.981521447E-03  -9.803523373E+01   9.984830575E-05
   1.379200000E-02   9.982328937E+01  -4.191011152E+00  -9.801175566E+01   9.982311207E-05
   1.379300000E-02   9.975507830E+01  -1.489263615E+01  -9.799948517E+01   9.975489837E-05
   1.379400000E-02   9.967351556E+01  -2.748729870E+01  -9.800159561E+01   9.967333492E-05
   1.379500000E-02   9.965709518E+01  -2.988819292E+01  -9.801463969E+01   9.965691808E-05
   1.379600000E-02   9.965617703E+01  -2.988791677E+01  -9.802716779E+01   9.965599561E-05
   1.379700000E-02   9.965524932E+01  -2.988763872E+01  -9.803863289E+01   9.965506587E-05
   1.379800000E-02   9.965431805E+01  -2.988735856E+01  -9.804910545E+01   9.965413407E-05
   1.379900000E-02   9.965338112E+01  -2.988707664E+01  -9.805866945E+01   9.965319689E-05
   1.380000000E-02   9.974926835E+01  -1.499409331E+01  -9.806367257E+01   9.974908398E-05
   1.380100000E-02   9.984848888E+01  -9.981521529E-03  -9.803522298E+01   9.984830656E-05
   1.380200000E-02   9.982329905E+01  -4.189467788E+00  -9.801175602E+01   9.982312175E-05
   1.380300000E-02   9.975512251E+01  -1.488577537E+01  -9.799948734E+01   9.975494259E-05
   1.380400000E-02   9.967348380E+01  -2.749219751E+01  -9.800159462E+01   9.967330317E-05
   1.380500000E-02   9.965710046E+01  -2.988819307E+01  -9.801463251E+01   9.965691857E-05
   1.380600000E-02   9.965617825E+01  -2.988791671E+01  -9.802717045E+01   9.965599541E-05
   1.380700000E-02   9.965524896E+01  -2.988763862E+01  -9.803863728E+01   9.965506551E-05
   1.380800000E-02   9.965431839E+01  -2.988735866E+01  -9.804910167E+01   9.965413441E-05
   1.380900000E-02   9.965338163E+01  -2.988707680E+01  -9.805866436E+01   9.965319740E-05
   1.381000000E-02   9.974964585E+01  -1.493597382E+01  -9.806366101E+01   9.974946148E-05
   1.381100000E-02   9.984848848E+01  -9.981521489E-03  -9.803522829E+01   9.984830616E-05
   1.381200000E-02   9.982329499E+01  -4.190148138E+00  -9.801175363E+01   9.982311769E-05
   1.381300000E-02   9.975509072E+01  -1.489076403E+01  -9.799948414E+01   9.975491080E-05
   1.381400000E-02   9.967352798E+01  -2.748546093E+01  -9.800158911E+01   9.967334734E-05
   1.381500000E-02   9.965710010E+01  -2.988819296E+01  -9.801463767E+01   9.965691822E-05
   1.381600000E-02   9.965617859E+01  -2.988791682E+01  -9.802716590E+01   9.965599575E-05
   1.381700000E-02   9.965524875E+01  -2.988763856E+01  -9.803863971E+01   9.965506531E-05
   1.381800000E-02   9.965431803E+01  -2.988735855E+01  -9.804910567E+01   9.965413405E-05
   1.381900000E-02   9.965338126E+01  -2.988707669E+01  -9.805866802E+01   9.965319703E-05
   1.382000000E-02   9.974957209E+01  -1.494733037E+01  -9.806366327E+01   9.974938772E-05
   1.382100000E-02   9.984848856E+01  -9.981521497E-03  -9.803522719E+01   9.984830625E-05
   1.382200000E-02   9.982330467E+01  -4.188603597E+00  -9.801175932E+01   9.982312736E-05
   1.382300000E-02   9.975508173E+01  -1.489219876E+01  -9.799948323E+01   9.975490181E-05
   1.382400000E-02   9.967349622E+01  -2.749035783E+01  -9.800159307E+01   9.967331558E-05
   1.382500000E-02   9.965709975E+01  -2.988819285E+01  -9.801464283E+01   9.965691786E-05
   1.382600000E-02   9.965617823E+01  -2.988791671E+01  -9.802717072E+01   9.965599539E-05
   1.382700000E-02   9.965524910E+01  -2.988763866E+01  -9.803863557E+01   9.965506565E-05
   1.382800000E-02   9.965431853E+01  -2.988735870E+01  -9.804910010E+01   9.965413455E-05
   1.382900000E-02   9.965338106E+01  -2.988707818E+01  -9.805867005E+01   9.965319683E-05
   1.383000000E-02   9.974949826E+01  -1.495869689E+01  -9.806366553E+01   9.974931389E-05
   1.383100000E-02   9.984848938E+01  -9.981521579E-03  -9.803521644E+01   9.984830706E-05
   1.383200000E-02   9.982329030E+01  -4.190950561E+00  -9.801175087E+01   9.982311300E-05
[...]
   2.478400000E-02   1.000611041E+02  -3.000935866E+01  -9.740564123E+01   5.523412600E+01
   2.478500000E-02   1.000621895E+02  -3.000968473E+01  -9.740361001E+01   5.522920352E+01
   2.478600000E-02   1.000632780E+02  -3.001001081E+01  -9.740157575E+01   5.522434815E+01
   2.478700000E-02   1.000643648E+02  -3.001033732E+01  -9.739954187E+01   5.521955939E+01
   2.478800000E-02   1.000654539E+02  -3.001066224E+01  -9.739751181E+01   5.521484523E+01
   2.478900000E-02   1.000665393E+02  -3.001098775E+01  -9.739547754E+01   5.521020504E+01
   2.479000000E-02   1.000676230E+02  -3.001131338E+01  -9.739344440E+01   5.520563011E+01
   2.479100000E-02   1.000687075E+02  -3.001163866E+01  -9.739141739E+01   5.520113634E+01
   2.479200000E-02   1.000697940E+02  -3.001196407E+01  -9.738938312E+01   5.519671264E+01
   2.479300000E-02   1.000708794E+02  -3.001229015E+01  -9.738735190E+01   5.519235840E+01
   2.479400000E-02   1.000719625E+02  -3.001261490E+01  -9.738532296E+01   5.518807928E+01
   2.479500000E-02   1.000730470E+02  -3.001294083E+01  -9.738329139E+01   5.518386563E+01
   2.479600000E-02   1.000741307E+02  -3.001326575E+01  -9.738125598E+01   5.517972652E+01
   2.479700000E-02   1.000752138E+02  -3.001359126E+01  -9.737922476E+01   5.517566488E+01
   2.479800000E-02   1.000762969E+02  -3.001391600E+01  -9.737719583E+01   5.517167414E+01
   2.479900000E-02   1.000773801E+02  -3.001424017E+01  -9.737516690E+01   5.516775738E+01
   2.480000000E-02   1.000784686E+02  -3.001456649E+01  -9.737313797E+01   5.516390717E+01
   2.480100000E-02   1.000795483E+02  -3.001489051E+01  -9.737110904E+01   5.516014424E+01
   2.480200000E-02   1.000806308E+02  -3.001521502E+01  -9.736907746E+01   5.515644689E+01
   2.480300000E-02   1.000817145E+02  -3.001553937E+01  -9.736704740E+01   5.515282295E+01
   2.480400000E-02   1.000827976E+02  -3.001586354E+01  -9.736502381E+01   5.514927350E+01
   2.480500000E-02   1.000838754E+02  -3.001618771E+01  -9.736299716E+01   5.514579917E+01
   2.480600000E-02   1.000849562E+02  -3.001651188E+01  -9.736096823E+01   5.514239576E+01
   2.480700000E-02   1.000860394E+02  -3.001683605E+01  -9.735893930E+01   5.513906898E+01
   2.480800000E-02   1.000871171E+02  -3.001716023E+01  -9.735691571E+01   5.513581428E+01
   2.480900000E-02   1.000881980E+02  -3.001748440E+01  -9.735488907E+01   5.513263353E+01
   2.481000000E-02   1.000892788E+02  -3.001780881E+01  -9.735286397E+01   5.512951569E+01
   2.481100000E-02   1.000903598E+02  -3.001813130E+01  -9.735083648E+01   5.512648589E+01
   2.481200000E-02   1.000914363E+02  -3.001845561E+01  -9.734881147E+01   5.512352660E+01
   2.481300000E-02   1.000925118E+02  -3.001877844E+01  -9.734679017E+01   5.512063806E+01
   2.481400000E-02   1.000935927E+02  -3.001910204E+01  -9.734476886E+01   5.511782349E+01
   2.481500000E-02   1.000946704E+02  -3.001942488E+01  -9.734274222E+01   5.511507984E+01
   2.481600000E-02   1.000957459E+02  -3.001974848E+01  -9.734071863E+01   5.511241016E+01
   2.481700000E-02   1.000968214E+02  -3.002007132E+01  -9.733869732E+01   5.510981407E+01
   2.481800000E-02   1.000978983E+02  -3.002039400E+01  -9.733667872E+01   5.510728716E+01
   2.481900000E-02   1.000989744E+02  -3.002071644E+01  -9.733465858E+01   5.510483202E+01
   2.482000000E-02   1.001000520E+02  -3.002103903E+01  -9.733263765E+01   5.510244736E+01
   2.482100000E-02   1.001011251E+02  -3.002136121E+01  -9.733061541E+01   5.510014372E+01
   2.482200000E-02   1.001022008E+02  -3.002168324E+01  -9.732860001E+01   5.509790967E+01
   2.482300000E-02   1.001032763E+02  -3.002200550E+01  -9.732658099E+01   5.509574190E+01
   2.482400000E-02   1.001043465E+02  -3.002232777E+01  -9.732456503E+01   5.509364809E+01
   2.482500000E-02   1.001054197E+02  -3.002264870E+01  -9.732255135E+01   5.509162521E+01
   2.482600000E-02   1.001064912E+02  -3.002297081E+01  -9.732053505E+01   5.508966843E+01
   2.482700000E-02   1.001075650E+02  -3.002329192E+01  -9.731852025E+01   5.508778453E+01
   2.482800000E-02   1.001086352E+02  -3.002361361E+01  -9.731650657E+01   5.508596882E+01
   2.482900000E-02   1.001097084E+02  -3.002393454E+01  -9.731449290E+01   5.508422593E+01
   2.483000000E-02   1.001107793E+02  -3.002425590E+01  -9.731247620E+01   5.508254358E+01
   2.483100000E-02   1.001118467E+02  -3.002457682E+01  -9.731046441E+01   5.508094493E+01
   2.483200000E-02   1.001129142E+02  -3.002489752E+01  -9.730845720E+01   5.507940943E+01
   2.483300000E-02   1.001139835E+02  -3.002521830E+01  -9.730644319E+01   5.507793765E+01
   2.483400000E-02   1.001150519E+02  -3.002553883E+01  -9.730443374E+01   5.507653304E+01
   2.483500000E-02   1.001161198E+02  -3.002585919E+01  -9.730242769E+01   5.507519940E+01
   2.483600000E-02   1.001171876E+02  -3.002617821E+01  -9.730041630E+01   5.507393019E+01
   2.483700000E-02   1.001182555E+02  -3.002649800E+01  -9.729840796E+01   5.507273000E+01
   2.483800000E-02   1.001193180E+02  -3.002681835E+01  -9.729640192E+01   5.507159425E+01
   2.483900000E-02   1.001203836E+02  -3.002713738E+01  -9.729440120E+01   5.507052483E+01
   2.484000000E-02   1.001214522E+02  -3.002745721E+01  -9.729239290E+01   5.506951340E+01
   2.484100000E-02   1.001225161E+02  -3.002777636E+01  -9.729038736E+01   5.506857886E+01
   2.484200000E-02   1.001235815E+02  -3.002809523E+01  -9.728838696E+01   5.506770468E+01
   2.484300000E-02   1.001246440E+02  -3.002841368E+01  -9.728638854E+01   5.506689200E+01
   2.484400000E-02   1.001257043E+02  -3.002873213E+01  -9.728438478E+01   5.506614413E+01
   2.484500000E-02   1.001267645E+02  -3.002905058E+01  -9.728238407E+01   5.506545841E+01
   2.484600000E-02   1.001278247E+02  -3.002936903E+01  -9.728038565E+01   5.506483637E+01
   2.484700000E-02   1.001288850E+02  -3.002968748E+01  -9.727838723E+01   5.506427648E+01
   2.484800000E-02   1.001299452E+02  -3.003000593E+01  -9.727639414E+01   5.506377492E+01
   2.484900000E-02   1.001310068E+02  -3.003032346E+01  -9.727439541E+01   5.506333535E+01
   2.485000000E-02   1.001320689E+02  -3.003064070E+01  -9.727239930E+01   5.506295003E+01
   2.485100000E-02   1.001331280E+02  -3.003095836E+01  -9.727040420E+01   5.506263833E+01
   2.485200000E-02   1.001341827E+02  -3.003127518E+01  -9.726841200E+01   5.506237869E+01
   2.485300000E-02   1.001352407E+02  -3.003159306E+01  -9.726642121E+01   5.506217732E+01
   2.485400000E-02   1.001362956E+02  -3.003191017E+01  -9.726443041E+01   5.506203428E+01
   2.485500000E-02   1.001373535E+02  -3.003222672E+01  -9.726243962E+01   5.506194844E+01
   2.485600000E-02   1.001384084E+02  -3.003254326E+01  -9.726044883E+01   5.506191980E+01
   2.485700000E-02   1.001394624E+02  -3.003286022E+01  -9.725846078E+01   5.506194840E+01
   2.485800000E-02   1.001405156E+02  -3.003317560E+01  -9.725647116E+01   5.506203160E+01
   2.485900000E-02   1.001415735E+02  -3.003349158E+01  -9.725448571E+01   5.506217082E+01
   2.486000000E-02   1.001426236E+02  -3.003380673E+01  -9.725250291E+01   5.506235880E+01
   2.486100000E-02   1.001436748E+02  -3.003412342E+01  -9.725051882E+01   5.506261062E+01
   2.486200000E-02   1.001447260E+02  -3.003443797E+01  -9.724853621E+01   5.506291220E+01
   2.486300000E-02   1.001457786E+02  -3.003475260E+01  -9.724655305E+01   5.506326609E+01
   2.486400000E-02   1.001468326E+02  -3.003506899E+01  -9.724457264E+01   5.506367391E+01
   2.486500000E-02   1.001478804E+02  -3.003538437E+01  -9.724259065E+01   5.506413222E+01
   2.486600000E-02   1.001489307E+02  -3.003569901E+01  -9.724061283E+01   5.506463986E+01
   2.486700000E-02   1.001499780E+02  -3.003601231E+01  -9.723863729E+01   5.506519974E+01
   2.486800000E-02   1.001510230E+02  -3.003632637E+01  -9.723665641E+01   5.506580765E+01
   2.486900000E-02   1.001520733E+02  -3.003664101E+01  -9.723468392E+01   5.506646400E+01
   2.487000000E-02   1.001531183E+02  -3.003695397E+01  -9.723270768E+01   5.506716740E+01
   2.487100000E-02   1.001541647E+02  -3.003726846E+01  -9.723073401E+01   5.506792503E+01
   2.487200000E-02   1.001552119E+02  -3.003758209E+01  -9.722876236E+01   5.506872883E+01
   2.487300000E-02   1.001562574E+02  -3.003789499E+01  -9.722678801E+01   5.506957750E+01
   2.487400000E-02   1.001573024E+02  -3.003820772E+01  -9.722481782E+01   5.507046880E+01
   2.487500000E-02   1.001583421E+02  -3.003852045E+01  -9.722284990E+01   5.507140738E+01
   2.487600000E-02   1.001593847E+02  -3.003883318E+01  -9.722088199E+01   5.507239019E+01
   2.487700000E-02   1.001604244E+02  -3.003914591E+01  -9.721891408E+01   5.507341761E+01
   2.487800000E-02   1.001614671E+02  -3.003945864E+01  -9.721695151E+01   5.507448812E+01
   2.487900000E-02   1.001625067E+02  -3.003977004E+01  -9.721498589E+01   5.507560057E+01
   2.488000000E-02   1.001635471E+02  -3.004008281E+01  -9.721302110E+01   5.507675125E+01
   2.488100000E-02   1.001645900E+02  -3.004039433E+01  -9.721105848E+01   5.507795247E+01
   2.488200000E-02   1.001656283E+02  -3.004070633E+01  -9.720909910E+01   5.507919190E+01
   2.488300000E-02   1.001666657E+02  -3.004101773E+01  -9.720713881E+01   5.508046685E+01
   2.488400000E-02   1.001677030E+02  -3.004132855E+01  -9.720517853E+01   5.508178146E+01
   2.488500000E-02   1.001687404E+02  -3.004163937E+01  -9.720321825E+01   5.508313534E+01
   2.488600000E-02   1.001697777E+02  -3.004195019E+01  -9.720126330E+01   5.508452735E+01
   2.488700000E-02   1.001708097E+02  -3.004226102E+01  -9.719931064E+01   5.508595748E+01
   2.488800000E-02   1.001718461E+02  -3.004257091E+01  -9.719735010E+01   5.508742501E+01
   2.488900000E-02   1.001728840E+02  -3.004288134E+01  -9.719539407E+01   5.508892849E+01
   2.489000000E-02   1.001739159E+02  -3.004319191E+01  -9.719344711E+01   5.509046173E+01
   2.489100000E-02   1.001749461E+02  -3.004350145E+01  -9.719149355E+01   5.509203565E+01
   2.489200000E-02   1.001759808E+02  -3.004381056E+01  -9.718954373E+01   5.509364195E+01
   2.489300000E-02   1.001770128E+02  -3.004411948E+01  -9.718759641E+01   5.509528034E+01
   2.489400000E-02   1.001780426E+02  -3.004442973E+01  -9.718564605E+01   5.509694923E+01
   2.489500000E-02   1.001790723E+02  -3.004473922E+01  -9.718369872E+01   5.509865129E+01
   2.489600000E-02   1.001801034E+02  -3.004504720E+01  -9.718175116E+01   5.510038727E+01
   2.489700000E-02   1.001811336E+02  -3.004535572E+01  -9.717980505E+01   5.510215252E+01
   2.489800000E-02   1.001821634E+02  -3.004566464E+01  -9.717786536E+01   5.510394729E+01
   2.489900000E-02   1.001831877E+02  -3.004597355E+01  -9.717592262E+01   5.510576990E+01
   2.490000000E-02   1.001842159E+02  -3.004628098E+01  -9.717397997E+01   5.510762097E+01
   2.490100000E-02   1.001852452E+02  -3.004658809E+01  -9.717203965E+01   5.510950076E+01
   2.490200000E-02   1.001862693E+02  -3.004689649E+01  -9.717010050E+01   5.511140549E+01
   2.490300000E-02   1.001872927E+02  -3.004720447E+01  -9.716816057E+01   5.511334006E+01
   2.490400000E-02   1.001883207E+02  -3.004751165E+01  -9.716622743E+01   5.511530106E+01
   2.490500000E-02   1.001893451E+02  -3.004781866E+01  -9.716429232E+01   5.511728500E+01
   2.490600000E-02   1.001903672E+02  -3.004812567E+01  -9.716235492E+01   5.511929182E+01
   2.490700000E-02   1.001913893E+02  -3.004843268E+01  -9.716042286E+01   5.512132418E+01
   2.490800000E-02   1.001924114E+02  -3.004873969E+01  -9.715849308E+01   5.512337789E+01
   2.490900000E-02   1.001934335E+02  -3.004904536E+01  -9.715656331E+01   5.512545601E+01
   2.491000000E-02   1.001944540E+02  -3.004935164E+01  -9.715462905E+01   5.512755362E+01
   2.491100000E-02   1.001954721E+02  -3.004965791E+01  -9.715269984E+01   5.512967651E+01
   2.491200000E-02   1.001964940E+02  -3.004996315E+01  -9.715077040E+01   5.513181828E+01
   2.491300000E-02   1.001975161E+02  -3.005026958E+01  -9.714884597E+01   5.513397880E+01
   2.491400000E-02   1.001985329E+02  -3.005057526E+01  -9.714691848E+01   5.513615838E+01
   2.491500000E-02   1.001995527E+02  -3.005088036E+01  -9.714499405E+01   5.513835702E+01
   2.491600000E-02   1.002005694E+02  -3.005118546E+01  -9.714307190E+01   5.514057206E+01
   2.491700000E-02   1.002015839E+02  -3.005149056E+01  -9.714114976E+01   5.514280502E+01
   2.491800000E-02   1.002025984E+02  -3.005179433E+01  -9.713922761E+01   5.514505704E+01
   2.491900000E-02   1.002036142E+02  -3.005209926E+01  -9.713730296E+01   5.514732575E+01
   2.492000000E-02   1.002046320E+02  -3.005240448E+01  -9.713538316E+01   5.514960534E+01
   2.492100000E-02   1.002056444E+02  -3.005270760E+01  -9.713346718E+01   5.515190404E+01
   2.492200000E-02   1.002066581E+02  -3.005301150E+01  -9.713154842E+01   5.515421625E+01
   2.492300000E-02   1.002076726E+02  -3.005331603E+01  -9.712963390E+01   5.515654189E+01
   2.492400000E-02   1.002086870E+02  -3.005361979E+01  -9.712771939E+01   5.515887745E+01
   2.492500000E-02   1.002096962E+02  -3.005392299E+01  -9.712580487E+01   5.516122596E+01
   2.492600000E-02   1.002107083E+02  -3.005422618E+01  -9.712389035E+01   5.516358973E+01
   2.492700000E-02   1.002117188E+02  -3.005452978E+01  -9.712197868E+01   5.516596652E+01
   2.492800000E-02   1.002127315E+02  -3.005483314E+01  -9.712006538E+01   5.516834918E+01
   2.492900000E-02   1.002137407E+02  -3.005513634E+01  -9.711815620E+01   5.517074347E+01
   2.493000000E-02   1.002147481E+02  -3.005543795E+01  -9.711624966E+01   5.517314457E+01
   2.493100000E-02   1.002157563E+02  -3.005574105E+01  -9.711434189E+01   5.517555694E+01
   2.493200000E-02   1.002167665E+02  -3.005604268E+01  -9.711243553E+01   5.517797782E+01
   2.493300000E-02   1.002177756E+02  -3.005634530E+01  -9.711052864E+01   5.518040606E+01
   2.493400000E-02   1.002187838E+02  -3.005664756E+01  -9.710862461E+01   5.518284394E+01
   2.493500000E-02   1.002197859E+02  -3.005694902E+01  -9.710671894E+01   5.518528498E+01
   2.493600000E-02   1.002207904E+02  -3.005725030E+01  -9.710481739E+01   5.518773114E+01
   2.493700000E-02   1.002217972E+02  -3.005755159E+01  -9.710291279E+01   5.519018493E+01
   2.493800000E-02   1.002228041E+02  -3.005785288E+01  -9.710101124E+01   5.519264368E+01
   2.493900000E-02   1.002238056E+02  -3.005815417E+01  -9.709911197E+01   5.519510623E+01
   2.494000000E-02   1.002248078E+02  -3.005845549E+01  -9.709721358E+01   5.519757292E+01
   2.494100000E-02   1.002258113E+02  -3.005875640E+01  -9.709531997E+01   5.520004024E+01
   2.494200000E-02   1.002268175E+02  -3.005905709E+01  -9.709341934E+01   5.520251620E+01
   2.494300000E-02   1.002278195E+02  -3.005935798E+01  -9.709152436E+01   5.520499272E+01
   2.494400000E-02   1.002288188E+02  -3.005965793E+01  -9.708962738E+01   5.520746786E+01
   2.494500000E-02   1.002298180E+02  -3.005995865E+01  -9.708773346E+01   5.520994568E+01
   2.494600000E-02   1.002308172E+02  -3.006025860E+01  -9.708584183E+01   5.521242464E+01
   2.494700000E-02   1.002318217E+02  -3.006055798E+01  -9.708395019E+01   5.521490359E+01
   2.494800000E-02   1.002328232E+02  -3.006085737E+01  -9.708205856E+01   5.521737988E+01
   2.494900000E-02   1.002338171E+02  -3.006115675E+01  -9.708016692E+01   5.521985769E+01
   2.495000000E-02   1.002348171E+02  -3.006145654E+01  -9.707827846E+01   5.522233659E+01
   2.495100000E-02   1.002358141E+02  -3.006175637E+01  -9.707638740E+01   5.522481299E+01
   2.495200000E-02   1.002368143E+02  -3.006205545E+01  -9.707450146E+01   5.522728621E+01
   2.495300000E-02   1.002378082E+02  -3.006235483E+01  -9.707261746E+01   5.522975754E+01
   2.495400000E-02   1.002388051E+02  -3.006265288E+01  -9.707073345E+01   5.523222353E+01
   2.495500000E-02   1.002398043E+02  -3.006295169E+01  -9.706884944E+01   5.523468723E+01
   2.495600000E-02   1.002407982E+02  -3.006324974E+01  -9.706696543E+01   5.523714827E+01
   2.495700000E-02   1.002417898E+02  -3.006354854E+01  -9.706508143E+01   5.523960282E+01
   2.495800000E-02   1.002427880E+02  -3.006384698E+01  -9.706319496E+01   5.524205561E+01
   2.495900000E-02   1.002437824E+02  -3.006414462E+01  -9.706131524E+01   5.524450275E+01
   2.496000000E-02   1.002447738E+02  -3.006444261E+01  -9.705943311E+01   5.524694045E+01
   2.496100000E-02   1.002457658E+02  -3.006474142E+01  -9.705755490E+01   5.524937382E+01
   2.496200000E-02   1.002467571E+02  -3.006503895E+01  -9.705567848E+01   5.525180042E+01
   2.496300000E-02   1.002477487E+02  -3.006533643E+01  -9.705380210E+01   5.525422065E+01
   2.496400000E-02   1.002487403E+02  -3.006563390E+01  -9.705192572E+01   5.525663325E+01
   2.496500000E-02   1.002497332E+02  -3.006593177E+01  -9.705004689E+01   5.525904136E+01
   2.496600000E-02   1.002507253E+02  -3.006622807E+01  -9.704816946E+01   5.526144004E+01
   2.496700000E-02   1.002517169E+02  -3.006652498E+01  -9.704629308E+01   5.526382975E+01
   2.496800000E-02   1.002527085E+02  -3.006682245E+01  -9.704442204E+01   5.526620917E+01
   2.496900000E-02   1.002536947E+02  -3.006711859E+01  -9.704254795E+01   5.526857981E+01
   2.497000000E-02   1.002546848E+02  -3.006741629E+01  -9.704067551E+01   5.527094345E+01
   2.497100000E-02   1.002556759E+02  -3.006771172E+01  -9.703880763E+01   5.527329212E+01
   2.497200000E-02   1.002566619E+02  -3.006800720E+01  -9.703693407E+01   5.527563303E+01
   2.497300000E-02   1.002576471E+02  -3.006830449E+01  -9.703506058E+01   5.527796592E+01
   2.497400000E-02   1.002586369E+02  -3.006860080E+01  -9.703319079E+01   5.528028561E+01
   2.497500000E-02   1.002596232E+02  -3.006889636E+01  -9.703132738E+01   5.528259256E+01
   2.497600000E-02   1.002606071E+02  -3.006919193E+01  -9.702946091E+01   5.528489074E+01
   2.497700000E-02   1.002615964E+02  -3.006948750E+01  -9.702759216E+01   5.528717596E+01
   2.497800000E-02   1.002625827E+02  -3.006978307E+01  -9.702572875E+01   5.528944592E+01
   2.497900000E-02   1.002635666E+02  -3.007007864E+01  -9.702386229E+01   5.529170597E+01
   2.498000000E-02   1.002645490E+02  -3.007037442E+01  -9.702199977E+01   5.529395626E+01
   2.498100000E-02   1.002655365E+02  -3.007067020E+01  -9.702013448E+01   5.529619079E+01
   2.498200000E-02   1.002665203E+02  -3.007096455E+01  -9.701827315E+01   5.529841210E+01
   2.498300000E-02   1.002675043E+02  -3.007125955E+01  -9.701640668E+01   5.530061722E+01
   2.498400000E-02   1.002684882E+02  -3.007155512E+01  -9.701454861E+01   5.530280977E+01
   2.498500000E-02   1.002694722E+02  -3.007184935E+01  -9.701268978E+01   5.530498820E+01
   2.498600000E-02   1.002704508E+02  -3.007214435E+01  -9.701082865E+01   5.530715138E+01
   2.498700000E-02   1.002714325E+02  -3.007243858E+01  -9.700896753E+01   5.530930198E+01
   2.498800000E-02   1.002724164E+02  -3.007273224E+01  -9.700711173E+01   5.531143580E+01
   2.498900000E-02   1.002733963E+02  -3.007302762E+01  -9.700525048E+01   5.531355866E+01
   2.499000000E-02   1.002743761E+02  -3.007332139E+01  -9.700339095E+01   5.531566274E+01
   2.499100000E-02   1.002753579E+02  -3.007361570E+01  -9.700153503E+01   5.531774887E+01
   2.499200000E-02   1.002763388E+02  -3.007390934E+01  -9.699967903E+01   5.531982167E+01
   2.499300000E-02   1.002773175E+02  -3.007420300E+01  -9.699782554E+01   5.532187806E+01
   2.499400000E-02   1.002782991E+02  -3.007449666E+01  -9.699597204E+01   5.532391654E+01
   2.499500000E-02   1.002792777E+02  -3.007479032E+01  -9.699411854E+01   5.532593861E+01
   2.499600000E-02   1.002802553E+02  -3.007508437E+01  -9.699226263E+01   5.532794805E+01
   2.499700000E-02   1.002812376E+02  -3.007537819E+01  -9.699040810E+01   5.532993804E+01
   2.499800000E-02   1.002822162E+02  -3.007567185E+01  -9.698855460E+01   5.533191052E+01
   2.499900000E-02   1.002831925E+02  -3.007596418E+01  -9.698670644E+01   5.533386508E+01
   2.500000000E-02   1.002841717E+02  -3.007625760E+01  -9.698485637E+01   5.533580327E+01
   2.500000037E-02   1.002841721E+02  -3.007625771E+01  -9.698485565E+01   5.533580399E+01




          JOB CONCLUDED

          TOTAL JOB TIME            5.78
