
**** 05/31/13 11:17:18 ********* PSpice 9.2 (Mar 2000) ******** ID# 1 ********

 ** Profile: "SCHEMATIC1-2"  [ G:\44FZ\paralel-schematic1-2.sim ] 


 ****     CIRCUIT DESCRIPTION


******************************************************************************




** Creating circuit file "paralel-schematic1-2.sim.cir" 
** WARNING: THIS AUTOMATICALLY GENERATED FILE MAY BE OVERWRITTEN BY SUBSEQUENT SIMULATIONS

*Libraries: 
* Local Libraries :
* From [PSPICE NETLIST] section of g:\program files\Orcad\PSpice\PSpice.ini file:
.lib "nom.lib" 

*Analysis directives: 
.TRAN 1u 25ms 13ms 1u 
.OPTIONS NOBIAS
.OPTIONS NOMOD
.OPTIONS NOOUTMSG
.OPTIONS ITL4= 100
.OPTIONS NUMDGT= 10
.OPTIONS WIDTH= 132
.PROBE V(*) I(*) W(*) D(*) NOISE(*) 
.INC ".\paralel-SCHEMATIC1.net" 



**** INCLUDING paralel-SCHEMATIC1.net ****
* source PARALEL
R_R2         0 N50597  1MEG  
X_S4    N241303 0 N27236 N241265 SCHEMATIC1_S4 
X_S2    N236610 0 N27236 N235437 SCHEMATIC1_S2 
R_RB1         0 SHIM  3.33333  
R_R6         0 N260882  1MEG  
E_DIFF3         N241303 0 VALUE {V(N257386,N254383)}
R_RB2         0 N235437  4  
R_R8         0 N260240  1MEG  
X_U2         N260882 N254383 Sw_tClose PARAMS: tClose=14m ttran=1u Rclosed=0.01
+  Ropen=1Meg
E_E1         N62053 0 VALUE {
+  if(I(V_V1)<138.9473,(-25.641*log((139.2857-I(V_V1))/139.2857))/-1.204+128.2051,0)
+  }
R_RB3         0 N239113  4  
C_CN         N40356 RN1  0.001  
L_L2         N64666 RN1  5uH  
C_CF         N00729 N27236  0.009  
V_V4         N259871 0   0.7
R_R4         0 N254383  1MEG  
R_RK2         N234987 N64666  0.02630  
R_RCN         0 N40356  0.02171  
V_V3         N50597 0 DC 0.01 AC 1
+PULSE 0 0.8 0 0.0098m 0.0001m 0.01m 0.01m
R_RCF         N00729 0  6.51419e-3  
X_S3    N239167 0 N27236 N239113 SCHEMATIC1_S3 
V_V5         N260240 0   0.7
X_U3         N260009 N260882 Sw_tClose PARAMS: tClose=24.5m ttran=1u
+  Rclosed=0.01 Ropen=1Meg
R_R7         0 N260009  1MEG  
L_L1         N134688 N27236  5uH  
V_V6         N257386 0   0.7
X_S1    N27337 0 N27236 SHIM SCHEMATIC1_S1 
R_RDN         0 N27236  40  
E_DIFF1         N50582 0 VALUE {V(N08877,N27236)}
E_DIFF4         N239167 0 VALUE {V(N260240,N260882)}
V_V2         N254251 0   1
V_V1         N62053 N134650 DC 0 AC 1 0
R_RB4         0 N241265  4  
V_Unom         N08877 0   100
R_R3         0 N254251  1MEG  
E_DIFF5         N236610 0 VALUE {V(N259871,N260009)}
R_RA         0 RN1  1.66666667  
R_RK1         N134688 N134650  0.02630  
E_DIFF2         N27337 0 VALUE {V(N50597,N50582)}
R_R5         0 N257386  1MEG  
X_SwStart         N27236 N234987 Sw_tClose PARAMS: tClose=14m ttran=1u
+  Rclosed=1u Ropen=1MEG
X_U1         N254383 N254251 Sw_tClose PARAMS: tClose=14m ttran=1u Rclosed=0.01
+  Ropen=1Meg
R_R1         0 N08877  1MEG  
R_R9         0 N259871  1MEG  
.IC         V(N134650 )=5
.PRINT         TRAN V([N27236]) I(R_RB1) I(R_RK1) I(R_RK2)

.subckt SCHEMATIC1_S4 1 2 3 4  
S_S4         3 4 1 2 _S4
RS_S4         1 2 1G
.MODEL         _S4 VSWITCH Roff=1e4 Ron=1m Voff=-1e-4 Von=1e-4
.ends SCHEMATIC1_S4

.subckt SCHEMATIC1_S2 1 2 3 4  
S_S2         3 4 1 2 _S2
RS_S2         1 2 1G
.MODEL         _S2 VSWITCH Roff=1e4 Ron=0.1m Voff=-1e-4 Von=1e-4
.ends SCHEMATIC1_S2

.subckt SCHEMATIC1_S3 1 2 3 4  
S_S3         3 4 1 2 _S3
RS_S3         1 2 1G
.MODEL         _S3 VSWITCH Roff=1e4 Ron=1m Voff=-1e-4 Von=1e-4
.ends SCHEMATIC1_S3

.subckt SCHEMATIC1_S1 1 2 3 4  
S_S1         3 4 1 2 _S1
RS_S1         1 2 1G
.MODEL         _S1 VSWITCH Roff=1e4 Ron=1m Voff=-1e-4 Von=1e-4
.ends SCHEMATIC1_S1

**** RESUMING paralel-schematic1-2.sim.cir ****
.END

WARNING -- Pulse Period < (Rise Time + Fall Time + Pulse Width) for V_V3
WARNING -- Pulse Period < (Rise Time + Fall Time + Pulse Width) for V_V3
**** 05/31/13 11:17:18 ********* PSpice 9.2 (Mar 2000) ******** ID# 1 ********

 ** Profile: "SCHEMATIC1-2"  [ G:\44FZ\paralel-schematic1-2.sim ] 


 ****     TRANSIENT ANALYSIS               TEMPERATURE =   27.000 DEG C


******************************************************************************



  TIME              V(N27236)         I(R_RB1)          I(R_RK1)          I(R_RK2)          

   1.300000000E-02   9.984606869E+01  -9.981280130E-03  -9.806647543E+01   9.984587703E-05
   1.300100000E-02   9.984817359E+01  -9.981489939E-03  -9.803760821E+01   9.984800781E-05
   1.300200000E-02   9.983615145E+01  -2.173023181E+00  -9.801264043E+01   9.983598774E-05
   1.300300000E-02   9.975512896E+01  -1.486759675E+01  -9.799906096E+01   9.975496250E-05
   1.300400000E-02   9.967346154E+01  -2.746403132E+01  -9.800230833E+01   9.967329231E-05
   1.300500000E-02   9.965686699E+01  -2.988812291E+01  -9.801553996E+01   9.965670447E-05
   1.300600000E-02   9.965594395E+01  -2.988784784E+01  -9.802807138E+01   9.965578055E-05
   1.300700000E-02   9.965501936E+01  -2.988756898E+01  -9.803949567E+01   9.965485511E-05
   1.300800000E-02   9.965408791E+01  -2.988728867E+01  -9.804991549E+01   9.965392316E-05
   1.300900000E-02   9.965314942E+01  -2.988700828E+01  -9.805944311E+01   9.965298404E-05
   1.301000000E-02   9.974900249E+01  -1.499975064E+01  -9.806438707E+01   9.974883236E-05
   1.301100000E-02   9.984825992E+01  -9.981498587E-03  -9.803591164E+01   9.984809275E-05
   1.301200000E-02   9.982323176E+01  -4.164523957E+00  -9.801240382E+01   9.982307000E-05
   1.301300000E-02   9.975512562E+01  -1.485035088E+01  -9.800007820E+01   9.975496025E-05
   1.301400000E-02   9.967348691E+01  -2.745746328E+01  -9.800212104E+01   9.967332083E-05
   1.301500000E-02   9.965716010E+01  -2.984530978E+01  -9.801497253E+01   9.965699495E-05
   1.301600000E-02   9.965596811E+01  -2.988785255E+01  -9.802753652E+01   9.965580779E-05
   1.301700000E-02   9.965503951E+01  -2.988757427E+01  -9.803901279E+01   9.965487380E-05
   1.301800000E-02   9.965410880E+01  -2.988729581E+01  -9.804947619E+01   9.965394728E-05
   1.301900000E-02   9.965317194E+01  -2.988701426E+01  -9.805904213E+01   9.965299945E-05
   1.302000000E-02   9.974939908E+01  -1.494163415E+01  -9.806403598E+01   9.974923170E-05
   1.302100000E-02   9.984827886E+01  -9.981501114E-03  -9.803558713E+01   9.984811085E-05
   1.302200000E-02   9.982322205E+01  -4.169133268E+00  -9.801211155E+01   9.982306009E-05
   1.302300000E-02   9.975509384E+01  -1.485856526E+01  -9.799981633E+01   9.975492847E-05
   1.302400000E-02   9.967353109E+01  -2.745390824E+01  -9.800188895E+01   9.967336500E-05
   1.302500000E-02   9.965717842E+01  -2.984593170E+01  -9.801477321E+01   9.965701239E-05
   1.302600000E-02   9.965598435E+01  -2.988786007E+01  -9.802734927E+01   9.965582326E-05
   1.302700000E-02   9.965506142E+01  -2.988758200E+01  -9.803883666E+01   9.965488871E-05
   1.302800000E-02   9.965412590E+01  -2.988730202E+01  -9.804931535E+01   9.965396833E-05
   1.302900000E-02   9.965318699E+01  -2.988702149E+01  -9.805889797E+01   9.965302106E-05
   1.303000000E-02   9.974934421E+01  -1.495302014E+01  -9.806390092E+01   9.974917959E-05
   1.303100000E-02   9.984829775E+01  -9.981502863E-03  -9.803547715E+01   9.984813154E-05
   1.303200000E-02   9.982324880E+01  -4.168190844E+00  -9.801200658E+01   9.982308651E-05
   1.303300000E-02   9.975508485E+01  -1.486318864E+01  -9.799971166E+01   9.975491947E-05
   1.303400000E-02   9.967349933E+01  -2.746193746E+01  -9.800179868E+01   9.967333325E-05
   1.303500000E-02   9.965719823E+01  -2.984639700E+01  -9.801467656E+01   9.965703133E-05
   1.303600000E-02   9.965600774E+01  -2.988786594E+01  -9.802726359E+01   9.965584558E-05
   1.303700000E-02   9.965507780E+01  -2.988758766E+01  -9.803876293E+01   9.965491032E-05
   1.303800000E-02   9.965414709E+01  -2.988730764E+01  -9.804924307E+01   9.965398380E-05
   1.303900000E-02   9.965321023E+01  -2.988702732E+01  -9.805882440E+01   9.965304197E-05
   1.304000000E-02   9.974929344E+01  -1.496436386E+01  -9.806383832E+01   9.974912412E-05
   1.304100000E-02   9.984832146E+01  -9.981504807E-03  -9.803540060E+01   9.984815419E-05
   1.304200000E-02   9.982324137E+01  -4.172700051E+00  -9.801194014E+01   9.982307876E-05
   1.304300000E-02   9.975510626E+01  -1.486294951E+01  -9.799966042E+01   9.975494089E-05
   1.304400000E-02   9.967349416E+01  -2.746577146E+01  -9.800174859E+01   9.967332807E-05
   1.304500000E-02   9.965720987E+01  -2.984702392E+01  -9.801464098E+01   9.965704238E-05
   1.304600000E-02   9.965602893E+01  -2.988787156E+01  -9.802722398E+01   9.965586578E-05
   1.304700000E-02   9.965510104E+01  -2.988759349E+01  -9.803871287E+01   9.965493250E-05
   1.304800000E-02   9.965416976E+01  -2.988731329E+01  -9.804920593E+01   9.965400542E-05
   1.304900000E-02   9.965323276E+01  -2.988703294E+01  -9.805878993E+01   9.965306343E-05
   1.305000000E-02   9.974969003E+01  -1.490624732E+01  -9.806378480E+01   9.974952345E-05
   1.305100000E-02   9.984833844E+01  -9.981506556E-03  -9.803537453E+01   9.984817488E-05
   1.305200000E-02   9.982326585E+01  -4.171573885E+00  -9.801191375E+01   9.982310521E-05
   1.305300000E-02   9.975509728E+01  -1.486731240E+01  -9.799962671E+01   9.975493191E-05
   1.305400000E-02   9.967351175E+01  -2.746597940E+01  -9.800171588E+01   9.967334566E-05
   1.305500000E-02   9.965723006E+01  -2.984740860E+01  -9.801460316E+01   9.965706170E-05
   1.305600000E-02   9.965604532E+01  -2.988787722E+01  -9.802719627E+01   9.965588140E-05
   1.305700000E-02   9.965511594E+01  -2.988759910E+01  -9.803868676E+01   9.965494669E-05
   1.305800000E-02   9.965418538E+01  -2.988731912E+01  -9.804917150E+01   9.965402632E-05
   1.305900000E-02   9.965324852E+01  -2.988703881E+01  -9.805875430E+01   9.965307978E-05
   1.306000000E-02   9.974918399E+01  -1.498709264E+01  -9.806377037E+01   9.974901654E-05
   1.306100000E-02   9.984835928E+01  -9.981508501E-03  -9.803533327E+01   9.984819025E-05
   1.306200000E-02   9.982325841E+01  -4.175886424E+00  -9.801187478E+01   9.982309527E-05
   1.306300000E-02   9.975511869E+01  -1.486679373E+01  -9.799959835E+01   9.975495332E-05
   1.306400000E-02   9.967347999E+01  -2.747360920E+01  -9.800169428E+01   9.967331391E-05
   1.306500000E-02   9.965724171E+01  -2.984798491E+01  -9.801458552E+01   9.965707276E-05
   1.306600000E-02   9.965606092E+01  -2.988788305E+01  -9.802716868E+01   9.965590230E-05
   1.306700000E-02   9.965513799E+01  -2.988760497E+01  -9.803865775E+01   9.965496903E-05
   1.306800000E-02   9.965420176E+01  -2.988732478E+01  -9.804915095E+01   9.965404194E-05
   1.306900000E-02   9.965326342E+01  -2.988704442E+01  -9.805872879E+01   9.965309996E-05
   1.307000000E-02   9.974957676E+01  -1.492897513E+01  -9.806372829E+01   9.974941224E-05
   1.307100000E-02   9.984837340E+01  -9.981510249E-03  -9.803532056E+01   9.984821094E-05
   1.307200000E-02   9.982325894E+01  -4.178440124E+00  -9.801184187E+01   9.982309777E-05
   1.307300000E-02   9.975508691E+01  -1.487443134E+01  -9.799956997E+01   9.975492153E-05
   1.307400000E-02   9.967352417E+01  -2.746946758E+01  -9.800166588E+01   9.967335808E-05
   1.307500000E-02   9.965699142E+01  -2.988816073E+01  -9.801472157E+01   9.965682794E-05
   1.307600000E-02   9.965606898E+01  -2.988788432E+01  -9.802727514E+01   9.965590455E-05
   1.307700000E-02   9.965513949E+01  -2.988760618E+01  -9.803875586E+01   9.965497447E-05
   1.307800000E-02   9.965420893E+01  -2.988732617E+01  -9.804922639E+01   9.965404337E-05
   1.307900000E-02   9.965327196E+01  -2.988704586E+01  -9.805880173E+01   9.965310616E-05
   1.308000000E-02   9.974951084E+01  -1.494030000E+01  -9.806379157E+01   9.974934233E-05
   1.308100000E-02   9.984838185E+01  -9.981511262E-03  -9.803536322E+01   9.984821630E-05
   1.308200000E-02   9.982327088E+01  -4.177436695E+00  -9.801189563E+01   9.982310960E-05
   1.308300000E-02   9.975513112E+01  -1.486832444E+01  -9.799961486E+01   9.975496575E-05
   1.308400000E-02   9.967349241E+01  -2.747510053E+01  -9.800170799E+01   9.967332632E-05
   1.308500000E-02   9.965699349E+01  -2.988816253E+01  -9.801476246E+01   9.965682758E-05
   1.308600000E-02   9.965607575E+01  -2.988788634E+01  -9.802730200E+01   9.965591103E-05
   1.308700000E-02   9.965514763E+01  -2.988760824E+01  -9.803877384E+01   9.965498225E-05
   1.308800000E-02   9.965421634E+01  -2.988732801E+01  -9.804925177E+01   9.965405043E-05
   1.308900000E-02   9.965327922E+01  -2.988704605E+01  -9.805882188E+01   9.965311307E-05
   1.309000000E-02   9.974944061E+01  -1.495170009E+01  -9.806380910E+01   9.974927192E-05
   1.309100000E-02   9.984838553E+01  -9.981511344E-03  -9.803536774E+01   9.984821985E-05
   1.309200000E-02   9.982325655E+01  -4.180271064E+00  -9.801190244E+01   9.982309528E-05
   1.309300000E-02   9.975509933E+01  -1.487400604E+01  -9.799962691E+01   9.975493396E-05
   1.309400000E-02   9.967348722E+01  -2.747660646E+01  -9.800171893E+01   9.967332113E-05
   1.309500000E-02   9.965699680E+01  -2.988816349E+01  -9.801475951E+01   9.965683442E-05
   1.309600000E-02   9.965607462E+01  -2.988788715E+01  -9.802729716E+01   9.965591128E-05
   1.309700000E-02   9.965515152E+01  -2.988760906E+01  -9.803877256E+01   9.965498729E-05
   1.309800000E-02   9.965421624E+01  -2.988732911E+01  -9.804924176E+01   9.965405169E-05
   1.309900000E-02   9.965328422E+01  -2.988704879E+01  -9.805880750E+01   9.965311921E-05
   1.310000000E-02   9.974937018E+01  -1.496313115E+01  -9.806381137E+01   9.974920496E-05
   1.310100000E-02   9.984838916E+01  -9.981512162E-03  -9.803538268E+01   9.984822599E-05
   1.310200000E-02   9.982327877E+01  -4.177525401E+00  -9.801191420E+01   9.982311739E-05
   1.310300000E-02   9.975509035E+01  -1.487608753E+01  -9.799962601E+01   9.975492497E-05
   1.310400000E-02   9.967350482E+01  -2.747457276E+01  -9.800171407E+01   9.967333874E-05
   1.310500000E-02   9.965700066E+01  -2.988816427E+01  -9.801476828E+01   9.965683792E-05
   1.310600000E-02   9.965607915E+01  -2.988788813E+01  -9.802729912E+01   9.965591545E-05
   1.310700000E-02   9.965515622E+01  -2.988761008E+01  -9.803877028E+01   9.965499163E-05
   1.310800000E-02   9.965422088E+01  -2.988733012E+01  -9.804923634E+01   9.965405598E-05
   1.310900000E-02   9.965328198E+01  -2.988704960E+01  -9.805881259E+01   9.965312281E-05
   1.311000000E-02   9.974930446E+01  -1.497442410E+01  -9.806381362E+01   9.974913524E-05
   1.311100000E-02   9.984839761E+01  -9.981512244E-03  -9.803536431E+01   9.984822680E-05
   1.311200000E-02   9.982326673E+01  -4.180305138E+00  -9.801189812E+01   9.982310306E-05
   1.311300000E-02   9.975511176E+01  -1.487339817E+01  -9.799962054E+01   9.975494639E-05
   1.311400000E-02   9.967347306E+01  -2.748007588E+01  -9.800171306E+01   9.967330698E-05
   1.311500000E-02   9.965700879E+01  -2.988816633E+01  -9.801475347E+01   9.965684569E-05
   1.311600000E-02   9.965608658E+01  -2.988788997E+01  -9.802729415E+01   9.965592253E-05
   1.311700000E-02   9.965515728E+01  -2.988761188E+01  -9.803876704E+01   9.965499263E-05
   1.311800000E-02   9.965422672E+01  -2.988733192E+01  -9.804923272E+01   9.965406153E-05
   1.311900000E-02   9.965328995E+01  -2.988705006E+01  -9.805880150E+01   9.965312452E-05
   1.312000000E-02   9.974968197E+01  -1.491630562E+01  -9.806379443E+01   9.974951638E-05
   1.312100000E-02   9.984839647E+01  -9.981513061E-03  -9.803537163E+01   9.984823295E-05
   1.312200000E-02   9.982326267E+01  -4.181401622E+00  -9.801188809E+01   9.982310119E-05
   1.312300000E-02   9.975507998E+01  -1.487897547E+01  -9.799960970E+01   9.975491460E-05
   1.312400000E-02   9.967351724E+01  -2.747391587E+01  -9.800170489E+01   9.967335115E-05
   1.312500000E-02   9.965701184E+01  -2.988816724E+01  -9.801475030E+01   9.965684875E-05
   1.312600000E-02   9.965609036E+01  -2.988789111E+01  -9.802728169E+01   9.965592631E-05
   1.312700000E-02   9.965516055E+01  -2.988761285E+01  -9.803875943E+01   9.965499590E-05
   1.312800000E-02   9.965422982E+01  -2.988733285E+01  -9.804922894E+01   9.965406464E-05
   1.312900000E-02   9.965329308E+01  -2.988705254E+01  -9.805879447E+01   9.965312765E-05
   1.313000000E-02   9.974916449E+01  -1.499714907E+01  -9.806380288E+01   9.974899492E-05
   1.313100000E-02   9.984840492E+01  -9.981513143E-03  -9.803535611E+01   9.984823831E-05
   1.313200000E-02   9.982327462E+01  -4.180257710E+00  -9.801188616E+01   9.982311303E-05
   1.313300000E-02   9.975512419E+01  -1.487267410E+01  -9.799961187E+01   9.975495882E-05
   1.313400000E-02   9.967348548E+01  -2.747936300E+01  -9.800170389E+01   9.967331940E-05
   1.313500000E-02   9.965701656E+01  -2.988816828E+01  -9.801474382E+01   9.965685311E-05
   1.313600000E-02   9.965609435E+01  -2.988789192E+01  -9.802728464E+01   9.965592995E-05
   1.313700000E-02   9.965516505E+01  -2.988761383E+01  -9.803875769E+01   9.965500005E-05
   1.313800000E-02   9.965423449E+01  -2.988733387E+01  -9.804922352E+01   9.965406895E-05
   1.313900000E-02   9.965329773E+01  -2.988705356E+01  -9.805878624E+01   9.965313194E-05
   1.314000000E-02   9.974954200E+01  -1.493902963E+01  -9.806378750E+01   9.974937607E-05
   1.314100000E-02   9.984840451E+01  -9.981513452E-03  -9.803535856E+01   9.984824064E-05
   1.314200000E-02   9.982327057E+01  -4.181317342E+00  -9.801188377E+01   9.982310898E-05
   1.314300000E-02   9.975509240E+01  -1.487820123E+01  -9.799960333E+01   9.975492703E-05
   1.314400000E-02   9.967352966E+01  -2.747315218E+01  -9.800169572E+01   9.967336357E-05
   1.314500000E-02   9.965701620E+01  -2.988816888E+01  -9.801474136E+01   9.965685275E-05
   1.314600000E-02   9.965609469E+01  -2.988789203E+01  -9.802727246E+01   9.965593029E-05
   1.314700000E-02   9.965517106E+01  -2.988761377E+01  -9.803875249E+01   9.965500576E-05
   1.314800000E-02   9.965423555E+01  -2.988733531E+01  -9.804921990E+01   9.965407586E-05
   1.314900000E-02   9.965330356E+01  -2.988705380E+01  -9.805878847E+01   9.965313885E-05
   1.315000000E-02   9.974947577E+01  -1.495040146E+01  -9.806378595E+01   9.974930585E-05
   1.315100000E-02   9.984841222E+01  -9.981514042E-03  -9.803534982E+01   9.984824527E-05
   1.315200000E-02   9.982328252E+01  -4.180140512E+00  -9.801188184E+01   9.982312082E-05
   1.315300000E-02   9.975508341E+01  -1.488014977E+01  -9.799959479E+01   9.975491804E-05
   1.315400000E-02   9.967349790E+01  -2.747855353E+01  -9.800169204E+01   9.967333181E-05
   1.315500000E-02   9.965702347E+01  -2.988816997E+01  -9.801474174E+01   9.965685967E-05
   1.315600000E-02   9.965610196E+01  -2.988789383E+01  -9.802726965E+01   9.965593720E-05
   1.315700000E-02   9.965517282E+01  -2.988761578E+01  -9.803874072E+01   9.965500746E-05
   1.315800000E-02   9.965424226E+01  -2.988733582E+01  -9.804920670E+01   9.965407637E-05
   1.315900000E-02   9.965330479E+01  -2.988705529E+01  -9.805878287E+01   9.965313864E-05
   1.316000000E-02   9.974940204E+01  -1.496175364E+01  -9.806378058E+01   9.974923575E-05
   1.316100000E-02   9.984841305E+01  -9.981514124E-03  -9.803533145E+01   9.984824881E-05
   1.316200000E-02   9.982326818E+01  -4.182832014E+00  -9.801186576E+01   9.982310649E-05
   1.316300000E-02   9.975510483E+01  -1.487733296E+01  -9.799959466E+01   9.975493946E-05
   1.316400000E-02   9.967349272E+01  -2.747986076E+01  -9.800169269E+01   9.967332664E-05
   1.316500000E-02   9.965702397E+01  -2.988817202E+01  -9.801473171E+01   9.965686017E-05
   1.316600000E-02   9.965610246E+01  -2.988789433E+01  -9.802726295E+01   9.965593770E-05
   1.316700000E-02   9.965517883E+01  -2.988761727E+01  -9.803874315E+01   9.965501318E-05
   1.316800000E-02   9.965424332E+01  -2.988733762E+01  -9.804921070E+01   9.965408328E-05
   1.316900000E-02   9.965330513E+01  -2.988705575E+01  -9.805877321E+01   9.965314626E-05
   1.317000000E-02   9.974978337E+01  -1.490363515E+01  -9.806376139E+01   9.974961690E-05
   1.317100000E-02   9.984841953E+01  -9.981514360E-03  -9.803534163E+01   9.984824768E-05
   1.317200000E-02   9.982329042E+01  -4.179957924E+00  -9.801187522E+01   9.982312643E-05
   1.317300000E-02   9.975509585E+01  -1.487923407E+01  -9.799958842E+01   9.975493048E-05
   1.317400000E-02   9.967351032E+01  -2.747765565E+01  -9.800168287E+01   9.967334423E-05
   1.317500000E-02   9.965703124E+01  -2.988817192E+01  -9.801472924E+01   9.965686709E-05
   1.317600000E-02   9.965610973E+01  -2.988789577E+01  -9.802726014E+01   9.965594462E-05
   1.317700000E-02   9.965518059E+01  -2.988761773E+01  -9.803873137E+01   9.965501488E-05
   1.317800000E-02   9.965424933E+01  -2.988733756E+01  -9.804920529E+01   9.965408308E-05
   1.317900000E-02   9.965331240E+01  -2.988705720E+01  -9.805877545E+01   9.965314590E-05
   1.318000000E-02   9.974926207E+01  -1.498447766E+01  -9.806377747E+01   9.974909544E-05
   1.318100000E-02   9.984842035E+01  -9.981515023E-03  -9.803532802E+01   9.984825577E-05
   1.318200000E-02   9.982327608E+01  -4.182619377E+00  -9.801186143E+01   9.982311427E-05
   1.318300000E-02   9.975511726E+01  -1.487637668E+01  -9.799958829E+01   9.975495189E-05
   1.318400000E-02   9.967347856E+01  -2.748299337E+01  -9.800168186E+01   9.967331247E-05
   1.318500000E-02   9.965703174E+01  -2.988817278E+01  -9.801472206E+01   9.965686758E-05
   1.318600000E-02   9.965610953E+01  -2.988789572E+01  -9.802726280E+01   9.965594442E-05
   1.318700000E-02   9.965518023E+01  -2.988761762E+01  -9.803873576E+01   9.965502044E-05
   1.318800000E-02   9.965424967E+01  -2.988733921E+01  -9.804920151E+01   9.965408478E-05
   1.318900000E-02   9.965331291E+01  -2.988705770E+01  -9.805876415E+01   9.965314641E-05
   1.319000000E-02   9.974964340E+01  -1.492635916E+01  -9.806375828E+01   9.974947658E-05
   1.319100000E-02   9.984842208E+01  -9.981514909E-03  -9.803533534E+01   9.984825463E-05
   1.319200000E-02   9.982327202E+01  -4.183601711E+00  -9.801185141E+01   9.982311022E-05
   1.319300000E-02   9.975508547E+01  -1.488179288E+01  -9.799957745E+01   9.975492010E-05
   1.319400000E-02   9.967352273E+01  -2.747667444E+01  -9.800167369E+01   9.967335664E-05
   1.319500000E-02   9.965703423E+01  -2.988817387E+01  -9.801471960E+01   9.965686723E-05
   1.319600000E-02   9.965610987E+01  -2.988789772E+01  -9.802725062E+01   9.965595068E-05
   1.319700000E-02   9.965518694E+01  -2.988761968E+01  -9.803872203E+01   9.965502230E-05
   1.319800000E-02   9.965425089E+01  -2.988733951E+01  -9.804919610E+01   9.965409050E-05
   1.319900000E-02   9.965331874E+01  -2.988705915E+01  -9.805876638E+01   9.965315332E-05
   1.320000000E-02   9.974957373E+01  -1.493767083E+01  -9.806375671E+01   9.974940674E-05
   1.320100000E-02   9.984842766E+01  -9.981515341E-03  -9.803531982E+01   9.984826272E-05
   1.320200000E-02   9.982328397E+01  -4.182349713E+00  -9.801185482E+01   9.982312206E-05
   1.320300000E-02   9.975512968E+01  -1.487534000E+01  -9.799957657E+01   9.975496432E-05
   1.320400000E-02   9.967349097E+01  -2.748197276E+01  -9.800167269E+01   9.967332489E-05
   1.320500000E-02   9.965703897E+01  -2.988817457E+01  -9.801472015E+01   9.965687446E-05
   1.320600000E-02   9.965611714E+01  -2.988789762E+01  -9.802724923E+01   9.965595168E-05
   1.320700000E-02   9.965518800E+01  -2.988761957E+01  -9.803871879E+01   9.965502194E-05
   1.320800000E-02   9.965425744E+01  -2.988734116E+01  -9.804918468E+01   9.965409084E-05
   1.320900000E-02   9.965332068E+01  -2.988705965E+01  -9.805875366E+01   9.965315383E-05
   1.321000000E-02   9.974949961E+01  -1.494908318E+01  -9.806375517E+01   9.974933262E-05
   1.321100000E-02   9.984842848E+01  -9.981516005E-03  -9.803530622E+01   9.984826354E-05
   1.321200000E-02   9.982326963E+01  -4.184970760E+00  -9.801184102E+01   9.982310772E-05
   1.321300000E-02   9.975509790E+01  -1.488071939E+01  -9.799957107E+01   9.975493253E-05
   1.321400000E-02   9.967353515E+01  -2.747561828E+01  -9.800166451E+01   9.967336906E-05
   1.321500000E-02   9.965704256E+01  -2.988817493E+01  -9.801470925E+01   9.965687806E-05
   1.321600000E-02   9.965612038E+01  -2.988789859E+01  -9.802724397E+01   9.965595492E-05
   1.321700000E-02   9.965519111E+01  -2.988762050E+01  -9.803871935E+01   9.965502504E-05
   1.321800000E-02   9.965426054E+01  -2.988734209E+01  -9.804918236E+01   9.965409394E-05
   1.321900000E-02   9.965332381E+01  -2.988706060E+01  -9.805874663E+01   9.965315696E-05
   1.322000000E-02   9.974942926E+01  -1.496050103E+01  -9.806374981E+01   9.974926209E-05
   1.322100000E-02   9.984843020E+01  -9.981515891E-03  -9.803531640E+01   9.984826241E-05
   1.322200000E-02   9.982328958E+01  -4.182026060E+00  -9.801185049E+01   9.982312767E-05
   1.322300000E-02   9.975508891E+01  -1.488252365E+01  -9.799956483E+01   9.975492354E-05
   1.322400000E-02   9.967350339E+01  -2.748087901E+01  -9.800166847E+01   9.967333730E-05
   1.322500000E-02   9.965704220E+01  -2.988817673E+01  -9.801471150E+01   9.965687770E-05
   1.322600000E-02   9.965612072E+01  -2.988790060E+01  -9.802723947E+01   9.965595526E-05
   1.322700000E-02   9.965519091E+01  -2.988762234E+01  -9.803871557E+01   9.965503074E-05
   1.322800000E-02   9.965426018E+01  -2.988734234E+01  -9.804918491E+01   9.965409496E-05
   1.322900000E-02   9.965332344E+01  -2.988706203E+01  -9.805875029E+01   9.965315659E-05
   1.323000000E-02   9.974935965E+01  -1.497180625E+01  -9.806375206E+01   9.974919230E-05
   1.323100000E-02   9.984843579E+01  -9.981516322E-03  -9.803530279E+01   9.984827050E-05
   1.323200000E-02   9.982327753E+01  -4.184621666E+00  -9.801183670E+01   9.982311551E-05
   1.323300000E-02   9.975511033E+01  -1.487957122E+01  -9.799956470E+01   9.975494496E-05
   1.323400000E-02   9.967347163E+01  -2.748612514E+01  -9.800166480E+01   9.967330555E-05
   1.323500000E-02   9.965704474E+01  -2.988817663E+01  -9.801471193E+01   9.965687734E-05
   1.323600000E-02   9.965612036E+01  -2.988790049E+01  -9.802723665E+01   9.965596079E-05
   1.323700000E-02   9.965519742E+01  -2.988762245E+01  -9.803871001E+01   9.965503246E-05
   1.323800000E-02   9.965426214E+01  -2.988734250E+01  -9.804917316E+01   9.965410136E-05
   1.323900000E-02   9.965332942E+01  -2.988706197E+01  -9.805874466E+01   9.965316367E-05
   1.324000000E-02   9.974973715E+01  -1.491368774E+01  -9.806373287E+01   9.974956980E-05
   1.324100000E-02   9.984843465E+01  -9.981516790E-03  -9.803531297E+01   9.984826936E-05
   1.324200000E-02   9.982327347E+01  -4.185540982E+00  -9.801183202E+01   9.982311145E-05
   1.324300000E-02   9.975507854E+01  -1.488489734E+01  -9.799956149E+01   9.975491317E-05
   1.324400000E-02   9.967351581E+01  -2.747971851E+01  -9.800165929E+01   9.967334972E-05
   1.324500000E-02   9.965704997E+01  -2.988817750E+01  -9.801470185E+01   9.965688511E-05
   1.324600000E-02   9.965612849E+01  -2.988790064E+01  -9.802722996E+01   9.965596268E-05
   1.324700000E-02   9.965519868E+01  -2.988762239E+01  -9.803870622E+01   9.965503226E-05
   1.324800000E-02   9.965426795E+01  -2.988734393E+01  -9.804917571E+01   9.965410100E-05
   1.324900000E-02   9.965333121E+01  -2.988706244E+01  -9.805874123E+01   9.965316401E-05
   1.325000000E-02   9.974921585E+01  -1.499453027E+01  -9.806374895E+01   9.974904834E-05
   1.325100000E-02   9.984843833E+01  -9.981516872E-03  -9.803529936E+01   9.984827018E-05
   1.325200000E-02   9.982328313E+01  -4.184226608E+00  -9.801183237E+01   9.982312112E-05
   1.325300000E-02   9.975512275E+01  -1.487835807E+01  -9.799955832E+01   9.975495738E-05
   1.325400000E-02   9.967348405E+01  -2.748493154E+01  -9.800165562E+01   9.967331796E-05
   1.325500000E-02   9.965704961E+01  -2.988817857E+01  -9.801470229E+01   9.965688476E-05
   1.325600000E-02   9.965612813E+01  -2.988790244E+01  -9.802723332E+01   9.965596232E-05
   1.325700000E-02   9.965519902E+01  -2.988762439E+01  -9.803870212E+01   9.965503849E-05
   1.325800000E-02   9.965426846E+01  -2.988734445E+01  -9.804917014E+01   9.965410289E-05
   1.325900000E-02   9.965333101E+01  -2.988706392E+01  -9.805874323E+01   9.965316381E-05
   1.326000000E-02   9.974959719E+01  -1.493641176E+01  -9.806373357E+01   9.974942949E-05
   1.326100000E-02   9.984844269E+01  -9.981516831E-03  -9.803529990E+01   9.984827705E-05
   1.326200000E-02   9.982328137E+01  -4.185123740E+00  -9.801182770E+01   9.982311925E-05
   1.326300000E-02   9.975509097E+01  -1.488365367E+01  -9.799955512E+01   9.975492560E-05
   1.326400000E-02   9.967352823E+01  -2.747849440E+01  -9.800165012E+01   9.967336214E-05
   1.326500000E-02   9.965705011E+01  -2.988817872E+01  -9.801469511E+01   9.965688525E-05
   1.326600000E-02   9.965612793E+01  -2.988790238E+01  -9.802722977E+01   9.965596212E-05
   1.326700000E-02   9.965520484E+01  -2.988762429E+01  -9.803870505E+01   9.965503813E-05
   1.326800000E-02   9.965426955E+01  -2.988734434E+01  -9.804916797E+01   9.965410842E-05
   1.326900000E-02   9.965333136E+01  -2.988706402E+01  -9.805873217E+01   9.965317143E-05
   1.327000000E-02   9.974952341E+01  -1.494777039E+01  -9.806373202E+01   9.974935571E-05
   1.327100000E-02   9.984844278E+01  -9.981517189E-03  -9.803529593E+01   9.984827714E-05
   1.327200000E-02   9.982329104E+01  -4.183789288E+00  -9.801182805E+01   9.982312891E-05
   1.327300000E-02   9.975508197E+01  -1.488538192E+01  -9.799954658E+01   9.975491660E-05
   1.327400000E-02   9.967349646E+01  -2.748368073E+01  -9.800165408E+01   9.967333038E-05
   1.327500000E-02   9.965705738E+01  -2.988817934E+01  -9.801469737E+01   9.965689217E-05
   1.327600000E-02   9.965613590E+01  -2.988790248E+01  -9.802722526E+01   9.965596973E-05
   1.327700000E-02   9.965520679E+01  -2.988762444E+01  -9.803869277E+01   9.965504002E-05
   1.327800000E-02   9.965427553E+01  -2.988734582E+01  -9.804916870E+01   9.965410822E-05
   1.327900000E-02   9.965333862E+01  -2.988706428E+01  -9.805873583E+01   9.965317106E-05
   1.328000000E-02   9.974945341E+01  -1.495913483E+01  -9.806373047E+01   9.974928553E-05
   1.328100000E-02   9.984844646E+01  -9.981517271E-03  -9.803528041E+01   9.984827795E-05
   1.328200000E-02   9.982327668E+01  -4.186333214E+00  -9.801181731E+01   9.982311457E-05
   1.328300000E-02   9.975510339E+01  -1.488235397E+01  -9.799954874E+01   9.975493802E-05
   1.328400000E-02   9.967349128E+01  -2.748477979E+01  -9.800164709E+01   9.967332520E-05
   1.328500000E-02   9.965705735E+01  -2.988818051E+01  -9.801469311E+01   9.965689214E-05
   1.328600000E-02   9.965613554E+01  -2.988790428E+01  -9.802722244E+01   9.965596937E-05
   1.328700000E-02   9.965520643E+01  -2.988762624E+01  -9.803869571E+01   9.965503966E-05
   1.328800000E-02   9.965427587E+01  -2.988734629E+01  -9.804915878E+01   9.965410856E-05
   1.328900000E-02   9.965333913E+01  -2.988706597E+01  -9.805872311E+01   9.965317157E-05
   1.329000000E-02   9.974983093E+01  -1.490101632E+01  -9.806371509E+01   9.974966304E-05
   1.329100000E-02   9.984845009E+01  -9.981517739E-03  -9.803529537E+01   9.984828136E-05
   1.329200000E-02   9.982329894E+01  -4.183313402E+00  -9.801182906E+01   9.982313671E-05
   1.329300000E-02   9.975509441E+01  -1.488405371E+01  -9.799954783E+01   9.975492904E-05
   1.329400000E-02   9.967350888E+01  -2.748237652E+01  -9.800164490E+01   9.967334279E-05
   1.329500000E-02   9.965705752E+01  -2.988818057E+01  -9.801469063E+01   9.965689231E-05
   1.329600000E-02   9.965613604E+01  -2.988790443E+01  -9.802721575E+01   9.965596987E-05
   1.329700000E-02   9.965520623E+01  -2.988762618E+01  -9.803869192E+01   9.965504535E-05
   1.329800000E-02   9.965427550E+01  -2.988734618E+01  -9.804916133E+01   9.965410958E-05
   1.329900000E-02   9.965333876E+01  -2.988706586E+01  -9.805872677E+01   9.965317710E-05
   1.330000000E-02   9.974930963E+01  -1.498185885E+01  -9.806373117E+01   9.974914158E-05
   1.330100000E-02   9.984845091E+01  -9.981517821E-03  -9.803528176E+01   9.984828491E-05
   1.330200000E-02   9.982328458E+01  -4.185839164E+00  -9.801181527E+01   9.982312236E-05
   1.330300000E-02   9.975511582E+01  -1.488100101E+01  -9.799954236E+01   9.975495045E-05
   1.330400000E-02   9.967347712E+01  -2.748752344E+01  -9.800164886E+01   9.967331104E-05
   1.330500000E-02   9.965705717E+01  -2.988818118E+01  -9.801469289E+01   9.965689196E-05
   1.330600000E-02   9.965613568E+01  -2.988790432E+01  -9.802722056E+01   9.965597541E-05
   1.330700000E-02   9.965521275E+01  -2.988762628E+01  -9.803868782E+01   9.965504707E-05
   1.330800000E-02   9.965427746E+01  -2.988734787E+01  -9.804915576E+01   9.965411598E-05
   1.330900000E-02   9.965333856E+01  -2.988706617E+01  -9.805872877E+01   9.965317828E-05
   1.331000000E-02   9.974968714E+01  -1.492373939E+01  -9.806371579E+01   9.974951908E-05
   1.331100000E-02   9.984844977E+01  -9.981517707E-03  -9.803529194E+01   9.984828377E-05
   1.331200000E-02   9.982328052E+01  -4.186690571E+00  -9.801181059E+01   9.982311830E-05
   1.331300000E-02   9.975508404E+01  -1.488623131E+01  -9.799953916E+01   9.975491866E-05
   1.331400000E-02   9.967352130E+01  -2.748102272E+01  -9.800163572E+01   9.967335521E-05
   1.331500000E-02   9.965706057E+01  -2.988818251E+01  -9.801468098E+01   9.965689973E-05
   1.331600000E-02   9.965614166E+01  -2.988790617E+01  -9.802721556E+01   9.965597659E-05
   1.331700000E-02   9.965521384E+01  -2.988762808E+01  -9.803869075E+01   9.965504671E-05
   1.331800000E-02   9.965428327E+01  -2.988734813E+01  -9.804915358E+01   9.965411561E-05
   1.331900000E-02   9.965334654E+01  -2.988706627E+01  -9.805871771E+01   9.965317863E-05
   1.332000000E-02   9.974961756E+01  -1.493503879E+01  -9.806371423E+01   9.974944933E-05
   1.332100000E-02   9.984845059E+01  -9.981518138E-03  -9.803527833E+01   9.984828459E-05
   1.332200000E-02   9.982329020E+01  -4.185310897E+00  -9.801181095E+01   9.982312797E-05
   1.332300000E-02   9.975512825E+01  -1.487960009E+01  -9.799954133E+01   9.975496288E-05
   1.332400000E-02   9.967348954E+01  -2.748614732E+01  -9.800163968E+01   9.967332345E-05
   1.332500000E-02   9.965706184E+01  -2.988818219E+01  -9.801468508E+01   9.965689628E-05
   1.332600000E-02   9.965614001E+01  -2.988790524E+01  -9.802721751E+01   9.965597349E-05
   1.332700000E-02   9.965521708E+01  -2.988762719E+01  -9.803868847E+01   9.965504966E-05
   1.332800000E-02   9.965428174E+01  -2.988734879E+01  -9.804915435E+01   9.965411993E-05
   1.332900000E-02   9.965334355E+01  -2.988706728E+01  -9.805871711E+01   9.965318291E-05
   1.333000000E-02   9.974954336E+01  -1.494646341E+01  -9.806371650E+01   9.974937513E-05
   1.333100000E-02   9.984845427E+01  -9.981518220E-03  -9.803526758E+01   9.984828996E-05
   1.333200000E-02   9.982327584E+01  -4.187814015E+00  -9.801180250E+01   9.982311580E-05
   1.333300000E-02   9.975509646E+01  -1.488481074E+01  -9.799953278E+01   9.975493109E-05
   1.333400000E-02   9.967353372E+01  -2.747962629E+01  -9.800163418E+01   9.967336763E-05
   1.333500000E-02   9.965706202E+01  -2.988818344E+01  -9.801467966E+01   9.965689917E-05
   1.333600000E-02   9.965614051E+01  -2.988790730E+01  -9.802721081E+01   9.965597990E-05
   1.333700000E-02   9.965521688E+01  -2.988762904E+01  -9.803868469E+01   9.965505082E-05
   1.333800000E-02   9.965428137E+01  -2.988734903E+01  -9.804915072E+01   9.965411956E-05
   1.333900000E-02   9.965334939E+01  -2.988706717E+01  -9.805871934E+01   9.965318255E-05
   1.334000000E-02   9.974947309E+01  -1.495786900E+01  -9.806371114E+01   9.974930468E-05
   1.334100000E-02   9.984845790E+01  -9.981518688E-03  -9.803527777E+01   9.984829155E-05
   1.334200000E-02   9.982329810E+01  -4.184753774E+00  -9.801181196E+01   9.982313577E-05
   1.334300000E-02   9.975508747E+01  -1.488645441E+01  -9.799953188E+01   9.975492210E-05
   1.334400000E-02   9.967350196E+01  -2.748473058E+01  -9.800163546E+01   9.967333587E-05
   1.334500000E-02   9.965706929E+01  -2.988818333E+01  -9.801468483E+01   9.965690337E-05
   1.334600000E-02   9.965614778E+01  -2.988790719E+01  -9.802720942E+01   9.965598091E-05
   1.334700000E-02   9.965521864E+01  -2.988762914E+01  -9.803867912E+01   9.965505117E-05
   1.334800000E-02   9.965428808E+01  -2.988734918E+01  -9.804914515E+01   9.965412007E-05
   1.334900000E-02   9.965335061E+01  -2.988706866E+01  -9.805871516E+01   9.965318235E-05
   1.335000000E-02   9.974939958E+01  -1.496918648E+01  -9.806371339E+01   9.974923117E-05
   1.335100000E-02   9.984845872E+01  -9.981518770E-03  -9.803526416E+01   9.984829236E-05
   1.335200000E-02   9.982328374E+01  -4.187242361E+00  -9.801179817E+01   9.982312141E-05
   1.335300000E-02   9.975510889E+01  -1.488334850E+01  -9.799953175E+01   9.975494352E-05
   1.335400000E-02   9.967347020E+01  -2.748982466E+01  -9.800163446E+01   9.967330411E-05
   1.335500000E-02   9.965706979E+01  -2.988818348E+01  -9.801467287E+01   9.965690387E-05
   1.335600000E-02   9.965614758E+01  -2.988790713E+01  -9.802721067E+01   9.965598071E-05
   1.335700000E-02   9.965521828E+01  -2.988762903E+01  -9.803868351E+01   9.965505080E-05
   1.335800000E-02   9.965428772E+01  -2.988734908E+01  -9.804914916E+01   9.965411970E-05
   1.335900000E-02   9.965335096E+01  -2.988706876E+01  -9.805871171E+01   9.965318269E-05
   1.336000000E-02   9.974977708E+01  -1.491106701E+01  -9.806370183E+01   9.974960867E-05
   1.336100000E-02   9.984845757E+01  -9.981518656E-03  -9.803527910E+01   9.984829123E-05
   1.336200000E-02   9.982327968E+01  -4.188058015E+00  -9.801179578E+01   9.982311735E-05
   1.336300000E-02   9.975507711E+01  -1.488852715E+01  -9.799952854E+01   9.975491173E-05
   1.336400000E-02   9.967351437E+01  -2.748327436E+01  -9.800162896E+01   9.967334829E-05
   1.336500000E-02   9.965706943E+01  -2.988818409E+01  -9.801467518E+01   9.965690351E-05
   1.336600000E-02   9.965614792E+01  -2.988790723E+01  -9.802720612E+01   9.965598105E-05
   1.336700000E-02   9.965521879E+01  -2.988762918E+01  -9.803867121E+01   9.965505722E-05
   1.336800000E-02   9.965428752E+01  -2.988735057E+01  -9.804914375E+01   9.965412086E-05
   1.336900000E-02   9.965335059E+01  -2.988706901E+01  -9.805871394E+01   9.965318233E-05
   1.337000000E-02   9.974925578E+01  -1.499191051E+01  -9.806371411E+01   9.974908721E-05
   1.337100000E-02   9.984846126E+01  -9.981518738E-03  -9.803526359E+01   9.984829204E-05
   1.337200000E-02   9.982328936E+01  -4.186642861E+00  -9.801179919E+01   9.982312702E-05
   1.337300000E-02   9.975512132E+01  -1.488184768E+01  -9.799952766E+01   9.975495595E-05
   1.337400000E-02   9.967348261E+01  -2.748835003E+01  -9.800163291E+01   9.967331653E-05
   1.337500000E-02   9.965706993E+01  -2.988818543E+01  -9.801466800E+01   9.965690401E-05
   1.337600000E-02   9.965614772E+01  -2.988790908E+01  -9.802720258E+01   9.965598085E-05
   1.337700000E-02   9.965522463E+01  -2.988763098E+01  -9.803867417E+01   9.965505686E-05
   1.337800000E-02   9.965428929E+01  -2.988735103E+01  -9.804913996E+01   9.965412712E-05
   1.337900000E-02   9.965335110E+01  -2.988706916E+01  -9.805870265E+01   9.965319011E-05
   1.338000000E-02   9.974963331E+01  -1.493379103E+01  -9.806369872E+01   9.974946472E-05
   1.338100000E-02   9.984846012E+01  -9.981518624E-03  -9.803527854E+01   9.984829545E-05
   1.338200000E-02   9.982328530E+01  -4.187444999E+00  -9.801179680E+01   9.982312515E-05
   1.338300000E-02   9.975508953E+01  -1.488700754E+01  -9.799952445E+01   9.975492416E-05
   1.338400000E-02   9.967352679E+01  -2.748178190E+01  -9.800162473E+01   9.967336070E-05
   1.338500000E-02   9.965706957E+01  -2.988818532E+01  -9.801467316E+01   9.965690365E-05
   1.338600000E-02   9.965614806E+01  -2.988790918E+01  -9.802719803E+01   9.965598710E-05
   1.338700000E-02   9.965522513E+01  -2.988763113E+01  -9.803866806E+01   9.965505873E-05
   1.338800000E-02   9.965428909E+01  -2.988735097E+01  -9.804914218E+01   9.965412692E-05
   1.338900000E-02   9.965335073E+01  -2.988707060E+01  -9.805870631E+01   9.965318974E-05
   1.339000000E-02   9.974955961E+01  -1.494513740E+01  -9.806370098E+01   9.974939466E-05
   1.339100000E-02   9.984846570E+01  -9.981519056E-03  -9.803526493E+01   9.984829900E-05
   1.339200000E-02   9.982329726E+01  -4.186018202E+00  -9.801179715E+01   9.982313482E-05
   1.339300000E-02   9.975508054E+01  -1.488860735E+01  -9.799952126E+01   9.975491516E-05
   1.339400000E-02   9.967349503E+01  -2.748684040E+01  -9.800162374E+01   9.967332895E-05
   1.339500000E-02   9.965707239E+01  -2.988818531E+01  -9.801466893E+01   9.965691089E-05
   1.339600000E-02   9.965614770E+01  -2.988790907E+01  -9.802720142E+01   9.965598810E-05
   1.339700000E-02   9.965522477E+01  -2.988763102E+01  -9.803867245E+01   9.965505836E-05
   1.339800000E-02   9.965429563E+01  -2.988735107E+01  -9.804913840E+01   9.965412726E-05
   1.339900000E-02   9.965335816E+01  -2.988707054E+01  -9.805870833E+01   9.965318954E-05
   1.340000000E-02   9.974948952E+01  -1.495651410E+01  -9.806370324E+01   9.974932076E-05
   1.340100000E-02   9.984846652E+01  -9.981519720E-03  -9.803524941E+01   9.984829982E-05
   1.340200000E-02   9.982328290E+01  -4.188475516E+00  -9.801178641E+01   9.982312047E-05
   1.340300000E-02   9.975510196E+01  -1.488545479E+01  -9.799952342E+01   9.975493659E-05
   1.340400000E-02   9.967348985E+01  -2.748781837E+01  -9.800162438E+01   9.967332376E-05
   1.340500000E-02   9.965707734E+01  -2.988818537E+01  -9.801466636E+01   9.965691107E-05
   1.340600000E-02   9.965615583E+01  -2.988790922E+01  -9.802719472E+01   9.965598860E-05
   1.340700000E-02   9.965522599E+01  -2.988763096E+01  -9.803866867E+01   9.965505816E-05
   1.340800000E-02   9.965429527E+01  -2.988735096E+01  -9.804913477E+01   9.965412690E-05
   1.340900000E-02   9.965335851E+01  -2.988707065E+01  -9.805870345E+01   9.965318989E-05
   1.341000000E-02   9.974986703E+01  -1.489839463E+01  -9.806368786E+01   9.974969826E-05
   1.341100000E-02   9.984846538E+01  -9.981519605E-03  -9.803526437E+01   9.984829868E-05
   1.341200000E-02   9.982330287E+01  -4.185370069E+00  -9.801179816E+01   9.982314043E-05
   1.341300000E-02   9.975509298E+01  -1.488703591E+01  -9.799951717E+01   9.975492760E-05
   1.341400000E-02   9.967350745E+01  -2.748529768E+01  -9.800162219E+01   9.967334136E-05
   1.341500000E-02   9.965707515E+01  -2.988818547E+01  -9.801467089E+01   9.965690778E-05
   1.341600000E-02   9.965615343E+01  -2.988790928E+01  -9.802720175E+01   9.965599123E-05
   1.341700000E-02   9.965522336E+01  -2.988763096E+01  -9.803868142E+01   9.965506173E-05
   1.341800000E-02   9.965429266E+01  -2.988735251E+01  -9.804914580E+01   9.965413050E-05
   1.341900000E-02   9.965335569E+01  -2.988707090E+01  -9.805870691E+01   9.965319328E-05
   1.342000000E-02   9.974934193E+01  -1.497923813E+01  -9.806370013E+01   9.974917317E-05
   1.342100000E-02   9.984846620E+01  -9.981519687E-03  -9.803525361E+01   9.984829950E-05
   1.342200000E-02   9.982328851E+01  -4.187819155E+00  -9.801178971E+01   9.982312608E-05
   1.342300000E-02   9.975511439E+01  -1.488387358E+01  -9.799951933E+01   9.975494902E-05
   1.342400000E-02   9.967347569E+01  -2.749033710E+01  -9.800162615E+01   9.967330960E-05
   1.342500000E-02   9.965707748E+01  -2.988818732E+01  -9.801466149E+01   9.965691121E-05
   1.342600000E-02   9.965615527E+01  -2.988790941E+01  -9.802719600E+01   9.965598804E-05
   1.342700000E-02   9.965522597E+01  -2.988763251E+01  -9.803866749E+01   9.965506406E-05
   1.342800000E-02   9.965429541E+01  -2.988735291E+01  -9.804913321E+01   9.965412840E-05
   1.342900000E-02   9.965335865E+01  -2.988707105E+01  -9.805869582E+01   9.965319003E-05
   1.343000000E-02   9.974972326E+01  -1.492111865E+01  -9.806368857E+01   9.974955432E-05
   1.343100000E-02   9.984846506E+01  -9.981519573E-03  -9.803526570E+01   9.984829836E-05
   1.343200000E-02   9.982328445E+01  -4.188593179E+00  -9.801178198E+01   9.982312202E-05
   1.343300000E-02   9.975508260E+01  -1.488899443E+01  -9.799951384E+01   9.975491723E-05
   1.343400000E-02   9.967351987E+01  -2.748373084E+01  -9.800161797E+01   9.967335378E-05
   1.343500000E-02   9.965707712E+01  -2.988818721E+01  -9.801466666E+01   9.965691085E-05
   1.343600000E-02   9.965615561E+01  -2.988791107E+01  -9.802719145E+01   9.965598838E-05
   1.343700000E-02   9.965522648E+01  -2.988763302E+01  -9.803866139E+01   9.965506456E-05
   1.343800000E-02   9.965429521E+01  -2.988735285E+01  -9.804913542E+01   9.965413412E-05
   1.343900000E-02   9.965335828E+01  -2.988707094E+01  -9.805869948E+01   9.965319694E-05
   1.344000000E-02   9.974919813E+01  -1.500196120E+01  -9.806370466E+01   9.974902921E-05
   1.344100000E-02   9.984846874E+01  -9.981519655E-03  -9.803525496E+01   9.984830373E-05
   1.344200000E-02   9.982329413E+01  -4.187138991E+00  -9.801178768E+01   9.982313387E-05
   1.344300000E-02   9.975512681E+01  -1.488225951E+01  -9.799951829E+01   9.975496145E-05
   1.344400000E-02   9.967348811E+01  -2.748875118E+01  -9.800162193E+01   9.967332202E-05
   1.344500000E-02   9.965707709E+01  -2.988818720E+01  -9.801466721E+01   9.965691081E-05
   1.344600000E-02   9.965615525E+01  -2.988791096E+01  -9.802719626E+01   9.965599394E-05
   1.344700000E-02   9.965523232E+01  -2.988763291E+01  -9.803866578E+01   9.965506556E-05
   1.344800000E-02   9.965429698E+01  -2.988735295E+01  -9.804913164E+01   9.965413446E-05
   1.344900000E-02   9.965335879E+01  -2.988707264E+01  -9.805869438E+01   9.965319745E-05
   1.345000000E-02   9.974957566E+01  -1.494384173E+01  -9.806368928E+01   9.974941036E-05
   1.345100000E-02   9.984846956E+01  -9.981519737E-03  -9.803523944E+01   9.984830727E-05
   1.345200000E-02   9.982327977E+01  -4.189570954E+00  -9.801177694E+01   9.982311952E-05
   1.345300000E-02   9.975509503E+01  -1.488736716E+01  -9.799951509E+01   9.975492966E-05
   1.345400000E-02   9.967353228E+01  -2.748213091E+01  -9.800161147E+01   9.967336619E-05
   1.345500000E-02   9.965707726E+01  -2.988818725E+01  -9.801465986E+01   9.965691371E-05
   1.345600000E-02   9.965615575E+01  -2.988791111E+01  -9.802718814E+01   9.965599444E-05
   1.345700000E-02   9.965523212E+01  -2.988763285E+01  -9.803866200E+01   9.965506536E-05
   1.345800000E-02   9.965429662E+01  -2.988735284E+01  -9.804912802E+01   9.965413410E-05
   1.345900000E-02   9.965335843E+01  -2.988707253E+01  -9.805869662E+01   9.965319708E-05
   1.346000000E-02   9.974950165E+01  -1.495523506E+01  -9.806368773E+01   9.974933635E-05
   1.346100000E-02   9.984847319E+01  -9.981519623E-03  -9.803525439E+01   9.984830614E-05
   1.346200000E-02   9.982330203E+01  -4.186440379E+00  -9.801178869E+01   9.982313949E-05
   1.346300000E-02   9.975508604E+01  -1.488891466E+01  -9.799950884E+01   9.975492067E-05
   1.346400000E-02   9.967350052E+01  -2.748713981E+01  -9.800161542E+01   9.967333444E-05
   1.346500000E-02   9.965707975E+01  -2.988818714E+01  -9.801466502E+01   9.965691791E-05
   1.346600000E-02   9.965615540E+01  -2.988791100E+01  -9.802719296E+01   9.965599544E-05
   1.346700000E-02   9.965523246E+01  -2.988763295E+01  -9.803865786E+01   9.965506570E-05
   1.346800000E-02   9.965429712E+01  -2.988735299E+01  -9.804912245E+01   9.965413460E-05
   1.346900000E-02   9.965336443E+01  -2.988707247E+01  -9.805869244E+01   9.965319688E-05
   1.347000000E-02   9.974943188E+01  -1.496656480E+01  -9.806368998E+01   9.974926276E-05
   1.347100000E-02   9.984847401E+01  -9.981520054E-03  -9.803524364E+01   9.984830695E-05
   1.347200000E-02   9.982328767E+01  -4.188863422E+00  -9.801178024E+01   9.982312513E-05
   1.347300000E-02   9.975510746E+01  -1.488571332E+01  -9.799951100E+01   9.975494209E-05
   1.347400000E-02   9.967349535E+01  -2.748806852E+01  -9.800161607E+01   9.967332926E-05
   1.347500000E-02   9.965708026E+01  -2.988818729E+01  -9.801465499E+01   9.965691840E-05
   1.347600000E-02   9.965616210E+01  -2.988791115E+01  -9.802718006E+01   9.965599594E-05
   1.347700000E-02   9.965523369E+01  -2.988763289E+01  -9.803865886E+01   9.965506550E-05
   1.347800000E-02   9.965430296E+01  -2.988735444E+01  -9.804912645E+01   9.965413424E-05
   1.347900000E-02   9.965336620E+01  -2.988707293E+01  -9.805868898E+01   9.965319723E-05
   1.348000000E-02   9.974980938E+01  -1.490844627E+01  -9.806367842E+01   9.974964026E-05
   1.348100000E-02   9.984847287E+01  -9.981519941E-03  -9.803525573E+01   9.984830582E-05
   1.348200000E-02   9.982328361E+01  -4.189615983E+00  -9.801177251E+01   9.982312107E-05
   1.348300000E-02   9.975507567E+01  -1.489080337E+01  -9.799950551E+01   9.975491030E-05
   1.348400000E-02   9.967351294E+01  -2.748550364E+01  -9.800161388E+01   9.967334685E-05
   1.348500000E-02   9.965708468E+01  -2.988818790E+01  -9.801466015E+01   9.965691805E-05
   1.348600000E-02   9.965616317E+01  -2.988791104E+01  -9.802718487E+01   9.965599558E-05
   1.348700000E-02   9.965523403E+01  -2.988763299E+01  -9.803865472E+01   9.965506584E-05
   1.348800000E-02   9.965430276E+01  -2.988735438E+01  -9.804912867E+01   9.965413404E-05
   1.348900000E-02   9.965336583E+01  -2.988707282E+01  -9.805869264E+01   9.965319686E-05
   1.349000000E-02   9.974928428E+01  -1.498928883E+01  -9.806369450E+01   9.974911517E-05
   1.349100000E-02   9.984847369E+01  -9.981520605E-03  -9.803524498E+01   9.984830663E-05
   1.349200000E-02   9.982329329E+01  -4.188139451E+00  -9.801177821E+01   9.982313074E-05
   1.349300000E-02   9.975511988E+01  -1.488403646E+01  -9.799950997E+01   9.975495451E-05
   1.349400000E-02   9.967348118E+01  -2.749049593E+01  -9.800161516E+01   9.967331510E-05
   1.349500000E-02   9.965708517E+01  -2.988818924E+01  -9.801465297E+01   9.965691854E-05
   1.349600000E-02   9.965616297E+01  -2.988791134E+01  -9.802718753E+01   9.965599538E-05
   1.349700000E-02   9.965523367E+01  -2.988763444E+01  -9.803865911E+01   9.965507140E-05
   1.349800000E-02   9.965430310E+01  -2.988735484E+01  -9.804912488E+01   9.965413574E-05
   1.349900000E-02   9.965336634E+01  -2.988707297E+01  -9.805868755E+01   9.965319737E-05
   1.350000000E-02   9.974966179E+01  -1.493116935E+01  -9.806368294E+01   9.974949631E-05
   1.350100000E-02   9.984847255E+01  -9.981520490E-03  -9.803525517E+01   9.984830550E-05
   1.350200000E-02   9.982328923E+01  -4.188883496E+00  -9.801177353E+01   9.982312669E-05
   1.350300000E-02   9.975508810E+01  -1.488911520E+01  -9.799950676E+01   9.975492273E-05
   1.350400000E-02   9.967352536E+01  -2.748384649E+01  -9.800160965E+01   9.967335927E-05
   1.350500000E-02   9.965708482E+01  -2.988818913E+01  -9.801465813E+01   9.965691819E-05
   1.350600000E-02   9.965616331E+01  -2.988791299E+01  -9.802718299E+01   9.965599572E-05
   1.350700000E-02   9.965523417E+01  -2.988763494E+01  -9.803865300E+01   9.965507190E-05
   1.350800000E-02   9.965430290E+01  -2.988735478E+01  -9.804912090E+01   9.965413554E-05
   1.350900000E-02   9.965336598E+01  -2.988707286E+01  -9.805868979E+01   9.965319700E-05
   1.351000000E-02   9.974958817E+01  -1.494250346E+01  -9.806368138E+01   9.974942269E-05
   1.351100000E-02   9.984847337E+01  -9.981520573E-03  -9.803524442E+01   9.984830631E-05
   1.351200000E-02   9.982329890E+01  -4.187400383E+00  -9.801177922E+01   9.982313636E-05
   1.351300000E-02   9.975513231E+01  -1.488233981E+01  -9.799951122E+01   9.975496694E-05
   1.351400000E-02   9.967349360E+01  -2.748882733E+01  -9.800161362E+01   9.967332751E-05
   1.351500000E-02   9.965708478E+01  -2.988818912E+01  -9.801465391E+01   9.965691815E-05
   1.351600000E-02   9.965616295E+01  -2.988791288E+01  -9.802718638E+01   9.965599536E-05
   1.351700000E-02   9.965523381E+01  -2.988763483E+01  -9.803865739E+01   9.965507154E-05
   1.351800000E-02   9.965430325E+01  -2.988735488E+01  -9.804911712E+01   9.965413589E-05
   1.351900000E-02   9.965336577E+01  -2.988707435E+01  -9.805869182E+01   9.965320272E-05
   1.352000000E-02   9.974951801E+01  -1.495389242E+01  -9.806367983E+01   9.974934872E-05
   1.352100000E-02   9.984847705E+01  -9.981520655E-03  -9.803523367E+01   9.984830713E-05
   1.352200000E-02   9.982328454E+01  -4.189804661E+00  -9.801177077E+01   9.982312200E-05
   1.352300000E-02   9.975510053E+01  -1.488740739E+01  -9.799950801E+01   9.975493515E-05
   1.352400000E-02   9.967348841E+01  -2.748973323E+01  -9.800160930E+01   9.967332233E-05
   1.352500000E-02   9.965708495E+01  -2.988818918E+01  -9.801465134E+01   9.965691833E-05
   1.352600000E-02   9.965616345E+01  -2.988791303E+01  -9.802717968E+01   9.965599586E-05
   1.352700000E-02   9.965523361E+01  -2.988763477E+01  -9.803865361E+01   9.965507134E-05
   1.352800000E-02   9.965430288E+01  -2.988735477E+01  -9.804911969E+01   9.965414144E-05
   1.352900000E-02   9.965336612E+01  -2.988707446E+01  -9.805868215E+01   9.965320442E-05
   1.353000000E-02   9.974944370E+01  -1.496533271E+01  -9.806368211E+01   9.974927441E-05
   1.353100000E-02   9.984847591E+01  -9.981520540E-03  -9.803524862E+01   9.984831054E-05
   1.353200000E-02   9.982330452E+01  -4.186646897E+00  -9.801178252E+01   9.982314416E-05
   1.353300000E-02   9.975509154E+01  -1.488891595E+01  -9.799950177E+01   9.975492617E-05
   1.353400000E-02   9.967350601E+01  -2.748714157E+01  -9.800160711E+01   9.967333993E-05
   1.353500000E-02   9.965708460E+01  -2.988818907E+01  -9.801465650E+01   9.965691797E-05
   1.353600000E-02   9.965616309E+01  -2.988791293E+01  -9.802718449E+01   9.965600142E-05
   1.353700000E-02   9.965524015E+01  -2.988763488E+01  -9.803864947E+01   9.965507304E-05
   1.353800000E-02   9.965430482E+01  -2.988735492E+01  -9.804911412E+01   9.965414194E-05
   1.353900000E-02   9.965336592E+01  -2.988707440E+01  -9.805868418E+01   9.965320422E-05
   1.354000000E-02   9.974937041E+01  -1.497661550E+01  -9.806368435E+01   9.974920477E-05
   1.354100000E-02   9.984847673E+01  -9.981520623E-03  -9.803523501E+01   9.984831409E-05
   1.354200000E-02   9.982329016E+01  -4.189045237E+00  -9.801177407E+01   9.982312980E-05
   1.354300000E-02   9.975511295E+01  -1.488568065E+01  -9.799950393E+01   9.975494758E-05
   1.354400000E-02   9.967347425E+01  -2.749210782E+01  -9.800161107E+01   9.967330817E-05
   1.354500000E-02   9.965708509E+01  -2.988818922E+01  -9.801464647E+01   9.965691847E-05
   1.354600000E-02   9.965616289E+01  -2.988791287E+01  -9.802718716E+01   9.965600122E-05
   1.354700000E-02   9.965523979E+01  -2.988763477E+01  -9.803865386E+01   9.965507268E-05
   1.354800000E-02   9.965430445E+01  -2.988735481E+01  -9.804911813E+01   9.965414158E-05
   1.354900000E-02   9.965336626E+01  -2.988707450E+01  -9.805868072E+01   9.965320457E-05
   1.355000000E-02   9.974974793E+01  -1.491849601E+01  -9.806367279E+01   9.974958226E-05
   1.355100000E-02   9.984848036E+01  -9.981520508E-03  -9.803524996E+01   9.984831295E-05
   1.355200000E-02   9.982328838E+01  -4.189772802E+00  -9.801176634E+01   9.982312573E-05
   1.355300000E-02   9.975508117E+01  -1.489073607E+01  -9.799949843E+01   9.975491580E-05
   1.355400000E-02   9.967351843E+01  -2.748543674E+01  -9.800160556E+01   9.967335234E-05
   1.355500000E-02   9.965708474E+01  -2.988818911E+01  -9.801465163E+01   9.965692083E-05
   1.355600000E-02   9.965616323E+01  -2.988791297E+01  -9.802717641E+01   9.965600156E-05
   1.355700000E-02   9.965524029E+01  -2.988763492E+01  -9.803864633E+01   9.965507318E-05
   1.355800000E-02   9.965430425E+01  -2.988735475E+01  -9.804912035E+01   9.965414138E-05
   1.355900000E-02   9.965336590E+01  -2.988707439E+01  -9.805868438E+01   9.965320420E-05
   1.356000000E-02   9.974922281E+01  -1.499933857E+01  -9.806368887E+01   9.974905717E-05
   1.356100000E-02   9.984848118E+01  -9.981520590E-03  -9.803523921E+01   9.984831377E-05
   1.356200000E-02   9.982329806E+01  -4.188273066E+00  -9.801177204E+01   9.982313541E-05
   1.356300000E-02   9.975512538E+01  -1.488393646E+01  -9.799950289E+01   9.975496001E-05
   1.356400000E-02   9.967348667E+01  -2.749039536E+01  -9.800160952E+01   9.967332059E-05
   1.356500000E-02   9.965708755E+01  -2.988818910E+01  -9.801465218E+01   9.965692535E-05
   1.356600000E-02   9.965616287E+01  -2.988791286E+01  -9.802718122E+01   9.965600256E-05
   1.356700000E-02   9.965523993E+01  -2.988763481E+01  -9.803865072E+01   9.965507282E-05
   1.356800000E-02   9.965430459E+01  -2.988735640E+01  -9.804911656E+01   9.965414172E-05
   1.356900000E-02   9.965337260E+01  -2.988707490E+01  -9.805867929E+01   9.965320471E-05
   1.357000000E-02   9.974960414E+01  -1.494122004E+01  -9.806367731E+01   9.974943467E-05
   1.357100000E-02   9.984848200E+01  -9.981520673E-03  -9.803522369E+01   9.984831458E-05
   1.357200000E-02   9.982328370E+01  -4.190662532E+00  -9.801176130E+01   9.982312105E-05
   1.357300000E-02   9.975509359E+01  -1.488898425E+01  -9.799949969E+01   9.975492822E-05
   1.357400000E-02   9.967353085E+01  -2.748371599E+01  -9.800160134E+01   9.967336476E-05
   1.357500000E-02   9.965708773E+01  -2.988818987E+01  -9.801464961E+01   9.965692553E-05
   1.357600000E-02   9.965616957E+01  -2.988791301E+01  -9.802717453E+01   9.965600306E-05
   1.357700000E-02   9.965524116E+01  -2.988763475E+01  -9.803865315E+01   9.965507262E-05
   1.357800000E-02   9.965431043E+01  -2.988735630E+01  -9.804912057E+01   9.965414136E-05
   1.357900000E-02   9.965337367E+01  -2.988707479E+01  -9.805868295E+01   9.965320434E-05
   1.358000000E-02   9.974953022E+01  -1.495260111E+01  -9.806367576E+01   9.974936075E-05
   1.358100000E-02   9.984848086E+01  -9.981520558E-03  -9.803523865E+01   9.984831345E-05
   1.358200000E-02   9.982330368E+01  -4.187489826E+00  -9.801177305E+01   9.982314102E-05
   1.358300000E-02   9.975508460E+01  -1.489047283E+01  -9.799949878E+01   9.975491923E-05
   1.358400000E-02   9.967349909E+01  -2.748866697E+01  -9.800160530E+01   9.967333300E-05
   1.358500000E-02   9.965708737E+01  -2.988818976E+01  -9.801465478E+01   9.965692517E-05
   1.358600000E-02   9.965616921E+01  -2.988791290E+01  -9.802717934E+01   9.965600270E-05
   1.358700000E-02   9.965524150E+01  -2.988763485E+01  -9.803864900E+01   9.965507296E-05
   1.358800000E-02   9.965431094E+01  -2.988735645E+01  -9.804910880E+01   9.965414186E-05
   1.358900000E-02   9.965337347E+01  -2.988707473E+01  -9.805868355E+01   9.965320414E-05
   1.359000000E-02   9.974945655E+01  -1.496394312E+01  -9.806367802E+01   9.974928708E-05
   1.359100000E-02   9.984848168E+01  -9.981520640E-03  -9.803522790E+01   9.984831426E-05
   1.359200000E-02   9.982328931E+01  -4.189874007E+00  -9.801176460E+01   9.982312667E-05
   1.359300000E-02   9.975510602E+01  -1.488721569E+01  -9.799950094E+01   9.975494065E-05
   1.359400000E-02   9.967349391E+01  -2.748954202E+01  -9.800160595E+01   9.967332783E-05
   1.359500000E-02   9.965709265E+01  -2.988819110E+01  -9.801464759E+01   9.965692566E-05
   1.359600000E-02   9.965617114E+01  -2.988791341E+01  -9.802717265E+01   9.965600320E-05
   1.359700000E-02   9.965524130E+01  -2.988763634E+01  -9.803865143E+01   9.965507276E-05
   1.359800000E-02   9.965431058E+01  -2.988735670E+01  -9.804911280E+01   9.965414150E-05
   1.359900000E-02   9.965337381E+01  -2.988707483E+01  -9.805868009E+01   9.965320449E-05
   1.360000000E-02   9.974983405E+01  -1.490582363E+01  -9.806366264E+01   9.974966458E-05
   1.360100000E-02   9.984848054E+01  -9.981520876E-03  -9.803524285E+01   9.984831313E-05
   1.360200000E-02   9.982330929E+01  -4.186696192E+00  -9.801177635E+01   9.982314664E-05
   1.360300000E-02   9.975509704E+01  -1.488869632E+01  -9.799950003E+01   9.975493167E-05
   1.360400000E-02   9.967351151E+01  -2.748692457E+01  -9.800160375E+01   9.967334542E-05
   1.360500000E-02   9.965709229E+01  -2.988819100E+01  -9.801464798E+01   9.965692531E-05
   1.360600000E-02   9.965617078E+01  -2.988791485E+01  -9.802717603E+01   9.965600284E-05
   1.360700000E-02   9.965524164E+01  -2.988763680E+01  -9.803864729E+01   9.965507310E-05
   1.360800000E-02   9.965431037E+01  -2.988735663E+01  -9.804911501E+01   9.965414130E-05
   1.360900000E-02   9.965337345E+01  -2.988707472E+01  -9.805868376E+01   9.965320412E-05
   1.361000000E-02   9.974930895E+01  -1.498666620E+01  -9.806367872E+01   9.974913949E-05
   1.361100000E-02   9.984848136E+01  -9.981520957E-03  -9.803523210E+01   9.984831394E-05
   1.361200000E-02   9.982329493E+01  -4.189075418E+00  -9.801176791E+01   9.982313228E-05
   1.361300000E-02   9.975511845E+01  -1.488543483E+01  -9.799950219E+01   9.975495308E-05
   1.361400000E-02   9.967347975E+01  -2.749186602E+01  -9.800160771E+01   9.967331366E-05
   1.361500000E-02   9.965709278E+01  -2.988819114E+01  -9.801464080E+01   9.965692580E-05
   1.361600000E-02   9.965617058E+01  -2.988791479E+01  -9.802717870E+01   9.965600264E-05
   1.361700000E-02   9.965524128E+01  -2.988763669E+01  -9.803864547E+01   9.965507866E-05
   1.361800000E-02   9.965431072E+01  -2.988735674E+01  -9.804910981E+01   9.965414300E-05
   1.361900000E-02   9.965337395E+01  -2.988707487E+01  -9.805867246E+01   9.965320463E-05
   1.362000000E-02   9.974968646E+01  -1.492854671E+01  -9.806366716E+01   9.974952063E-05
   1.362100000E-02   9.984848022E+01  -9.981520844E-03  -9.803524419E+01   9.984831281E-05
   1.362200000E-02   9.982329087E+01  -4.189784978E+00  -9.801176552E+01   9.982312822E-05
   1.362300000E-02   9.975508666E+01  -1.489046397E+01  -9.799949899E+01   9.975492129E-05
   1.362400000E-02   9.967352392E+01  -2.748516824E+01  -9.800159725E+01   9.967335784E-05
   1.362500000E-02   9.965709243E+01  -2.988819104E+01  -9.801464596E+01   9.965692545E-05
   1.362600000E-02   9.965617092E+01  -2.988791489E+01  -9.802717415E+01   9.965600298E-05
   1.362700000E-02   9.965524178E+01  -2.988763685E+01  -9.803863937E+01   9.965507916E-05
   1.362800000E-02   9.965431052E+01  -2.988735668E+01  -9.804911202E+01   9.965414280E-05
   1.362900000E-02   9.965337359E+01  -2.988707632E+01  -9.805867612E+01   9.965320426E-05
   1.363000000E-02   9.974961292E+01  -1.493986856E+01  -9.806366941E+01   9.974944709E-05
   1.363100000E-02   9.984848104E+01  -9.981520926E-03  -9.803523344E+01   9.984831363E-05
   1.363200000E-02   9.982330054E+01  -4.188268104E+00  -9.801177121E+01   9.982313789E-05
   1.363300000E-02   9.975513087E+01  -1.488364091E+01  -9.799949811E+01   9.975496551E-05
   1.363400000E-02   9.967349216E+01  -2.749010397E+01  -9.800160121E+01   9.967332608E-05
   1.363500000E-02   9.965709239E+01  -2.988819103E+01  -9.801464651E+01   9.965692541E-05
   1.363600000E-02   9.965617056E+01  -2.988791479E+01  -9.802717897E+01   9.965600262E-05
   1.363700000E-02   9.965524142E+01  -2.988763674E+01  -9.803864376E+01   9.965507880E-05
   1.363800000E-02   9.965431086E+01  -2.988735678E+01  -9.804910824E+01   9.965414314E-05
   1.363900000E-02   9.965337339E+01  -2.988707626E+01  -9.805867815E+01   9.965320406E-05
   1.364000000E-02   9.974953886E+01  -1.495126979E+01  -9.806367168E+01   9.974937304E-05
   1.364100000E-02   9.984848186E+01  -9.981521007E-03  -9.803522270E+01   9.984831444E-05
   1.364200000E-02   9.982328618E+01  -4.190641092E+00  -9.801175742E+01   9.982312353E-05
   1.364300000E-02   9.975509909E+01  -1.488866418E+01  -9.799949261E+01   9.975493372E-05
   1.364400000E-02   9.967348697E+01  -2.749096450E+01  -9.800160185E+01   9.967332089E-05
   1.364500000E-02   9.965709257E+01  -2.988819108E+01  -9.801464394E+01   9.965692559E-05
   1.364600000E-02   9.965617106E+01  -2.988791494E+01  -9.802717227E+01   9.965600312E-05
   1.364700000E-02   9.965524122E+01  -2.988763668E+01  -9.803864618E+01   9.965507860E-05
   1.364800000E-02   9.965431050E+01  -2.988735667E+01  -9.804911225E+01   9.965414278E-05
   1.364900000E-02   9.965337373E+01  -2.988707636E+01  -9.805867469E+01   9.965321032E-05
   1.365000000E-02   9.974946845E+01  -1.496269782E+01  -9.806367396E+01   9.974929880E-05
   1.365100000E-02   9.984848072E+01  -9.981521475E-03  -9.803523764E+01   9.984831331E-05
   1.365200000E-02   9.982330616E+01  -4.187452074E+00  -9.801176917E+01   9.982314351E-05
   1.365300000E-02   9.975509010E+01  -1.489013042E+01  -9.799949171E+01   9.975492473E-05
   1.365400000E-02   9.967350458E+01  -2.748832981E+01  -9.800159966E+01   9.967333849E-05
   1.365500000E-02   9.965709221E+01  -2.988819097E+01  -9.801464625E+01   9.965692523E-05
   1.365600000E-02   9.965617070E+01  -2.988791483E+01  -9.802717088E+01   9.965600276E-05
   1.365700000E-02   9.965524156E+01  -2.988763678E+01  -9.803864061E+01   9.965507894E-05
   1.365800000E-02   9.965431100E+01  -2.988735682E+01  -9.804910667E+01   9.965414329E-05
   1.365900000E-02   9.965337353E+01  -2.988707630E+01  -9.805867671E+01   9.965321012E-05
   1.366000000E-02   9.974939508E+01  -1.497399286E+01  -9.806367620E+01   9.974922544E-05
   1.366100000E-02   9.984848440E+01  -9.981521558E-03  -9.803522690E+01   9.984831412E-05
   1.366200000E-02   9.982329180E+01  -4.189821431E+00  -9.801176072E+01   9.982312915E-05
   1.366300000E-02   9.975511152E+01  -1.488685295E+01  -9.799949386E+01   9.975494615E-05
   1.366400000E-02   9.967347282E+01  -2.749325723E+01  -9.800160362E+01   9.967330674E-05
   1.366500000E-02   9.965709271E+01  -2.988819112E+01  -9.801463907E+01   9.965692573E-05
   1.366600000E-02   9.965617050E+01  -2.988791477E+01  -9.802717354E+01   9.965600256E-05
   1.366700000E-02   9.965524120E+01  -2.988763667E+01  -9.803864500E+01   9.965507858E-05
   1.366800000E-02   9.965431064E+01  -2.988735671E+01  -9.804911068E+01   9.965414884E-05
   1.366900000E-02   9.965337387E+01  -2.988707640E+01  -9.805867326E+01   9.965321183E-05
   1.367000000E-02   9.974977260E+01  -1.491587338E+01  -9.806366464E+01   9.974960295E-05
   1.367100000E-02   9.984848326E+01  -9.981521443E-03  -9.803523708E+01   9.984831753E-05
   1.367200000E-02   9.982328773E+01  -4.190521159E+00  -9.801175604E+01   9.982312727E-05
   1.367300000E-02   9.975507973E+01  -1.489186831E+01  -9.799949066E+01   9.975491436E-05
   1.367400000E-02   9.967351700E+01  -2.748654611E+01  -9.800159811E+01   9.967335091E-05
   1.367500000E-02   9.965709235E+01  -2.988819101E+01  -9.801464423E+01   9.965692537E-05
   1.367600000E-02   9.965617084E+01  -2.988791487E+01  -9.802716900E+01   9.965600290E-05
   1.367700000E-02   9.965524170E+01  -2.988763682E+01  -9.803863890E+01   9.965507908E-05
   1.367800000E-02   9.965431044E+01  -2.988735665E+01  -9.804911290E+01   9.965414864E-05
   1.367900000E-02   9.965337351E+01  -2.988707629E+01  -9.805867692E+01   9.965321146E-05
   1.368000000E-02   9.974924748E+01  -1.499671594E+01  -9.806368072E+01   9.974907784E-05
   1.368100000E-02   9.984848408E+01  -9.981521525E-03  -9.803522633E+01   9.984831835E-05
   1.368200000E-02   9.982329741E+01  -4.188994056E+00  -9.801176174E+01   9.982313695E-05
   1.368300000E-02   9.975512394E+01  -1.488503042E+01  -9.799949512E+01   9.975495858E-05
   1.368400000E-02   9.967348524E+01  -2.749146781E+01  -9.800160207E+01   9.967331915E-05
   1.368500000E-02   9.965709285E+01  -2.988819116E+01  -9.801463705E+01   9.965692587E-05
   1.368600000E-02   9.965617064E+01  -2.988791481E+01  -9.802717166E+01   9.965600270E-05
   1.368700000E-02   9.965524134E+01  -2.988763671E+01  -9.803864329E+01   9.965507872E-05
   1.368800000E-02   9.965431078E+01  -2.988735676E+01  -9.804910911E+01   9.965414898E-05
   1.368900000E-02   9.965337402E+01  -2.988707644E+01  -9.805867183E+01   9.965321197E-05
   1.369000000E-02   9.974962500E+01  -1.493859645E+01  -9.806366534E+01   9.974945535E-05
   1.369100000E-02   9.984848367E+01  -9.981521485E-03  -9.803523164E+01   9.984831795E-05
   1.369200000E-02   9.982329335E+01  -4.189689603E+00  -9.801175935E+01   9.982313289E-05
   1.369300000E-02   9.975509216E+01  -1.489004167E+01  -9.799949191E+01   9.975492679E-05
   1.369400000E-02   9.967352942E+01  -2.748475221E+01  -9.800159656E+01   9.967336333E-05
   1.369500000E-02   9.965709249E+01  -2.988819106E+01  -9.801464222E+01   9.965692551E-05
   1.369600000E-02   9.965617098E+01  -2.988791491E+01  -9.802716711E+01   9.965600896E-05
   1.369700000E-02   9.965524735E+01  -2.988763665E+01  -9.803864572E+01   9.965507988E-05
   1.369800000E-02   9.965431184E+01  -2.988735665E+01  -9.804911312E+01   9.965414862E-05
   1.369900000E-02   9.965337365E+01  -2.988707633E+01  -9.805867549E+01   9.965321160E-05
   1.370000000E-02   9.974955115E+01  -1.494996526E+01  -9.806366761E+01   9.974938515E-05
   1.370100000E-02   9.984848376E+01  -9.981521493E-03  -9.803523053E+01   9.984832076E-05
   1.370200000E-02   9.982330303E+01  -4.188160305E+00  -9.801176504E+01   9.982314256E-05
   1.370300000E-02   9.975508317E+01  -1.489149599E+01  -9.799949101E+01   9.975491779E-05
   1.370400000E-02   9.967349766E+01  -2.748966885E+01  -9.800159785E+01   9.967333157E-05
   1.370500000E-02   9.965709213E+01  -2.988819095E+01  -9.801464738E+01   9.965692515E-05
   1.370600000E-02   9.965617062E+01  -2.988791481E+01  -9.802717193E+01   9.965600860E-05
   1.370700000E-02   9.965524769E+01  -2.988763676E+01  -9.803864157E+01   9.965508022E-05
   1.370800000E-02   9.965431235E+01  -2.988735835E+01  -9.804910135E+01   9.965414912E-05
   1.370900000E-02   9.965337345E+01  -2.988707663E+01  -9.805867609E+01   9.965321140E-05
   1.371000000E-02   9.974947740E+01  -1.496132048E+01  -9.806366987E+01   9.974931140E-05
   1.371100000E-02   9.984848457E+01  -9.981521575E-03  -9.803521978E+01   9.984832158E-05
   1.371200000E-02   9.982328866E+01  -4.190521101E+00  -9.801175659E+01   9.982312820E-05
   1.371300000E-02   9.975510459E+01  -1.488820579E+01  -9.799949316E+01   9.975493922E-05
   1.371400000E-02   9.967349248E+01  -2.749051189E+01  -9.800159850E+01   9.967332639E-05
   1.371500000E-02   9.965709263E+01  -2.988819110E+01  -9.801464020E+01   9.965692565E-05
   1.371600000E-02   9.965617112E+01  -2.988791496E+01  -9.802716523E+01   9.965600910E-05
   1.371700000E-02   9.965524749E+01  -2.988763670E+01  -9.803864400E+01   9.965508002E-05
   1.371800000E-02   9.965431198E+01  -2.988735824E+01  -9.804910535E+01   9.965414876E-05
   1.371900000E-02   9.965337379E+01  -2.988707673E+01  -9.805867263E+01   9.965321175E-05
   1.372000000E-02   9.974985492E+01  -1.490320099E+01  -9.806365449E+01   9.974968890E-05
   1.372100000E-02   9.984848820E+01  -9.981521461E-03  -9.803523474E+01   9.984832044E-05
   1.372200000E-02   9.982331094E+01  -4.187320184E+00  -9.801176834E+01   9.982314818E-05
   1.372300000E-02   9.975509560E+01  -1.488965420E+01  -9.799949226E+01   9.975493023E-05
   1.372400000E-02   9.967351007E+01  -2.748786227E+01  -9.800159630E+01   9.967334399E-05
   1.372500000E-02   9.965709227E+01  -2.988819170E+01  -9.801464536E+01   9.965692801E-05
   1.372600000E-02   9.965617076E+01  -2.988791485E+01  -9.802717005E+01   9.965600874E-05
   1.372700000E-02   9.965524783E+01  -2.988763680E+01  -9.803863985E+01   9.965508036E-05
   1.372800000E-02   9.965431178E+01  -2.988735818E+01  -9.804910757E+01   9.965414856E-05
   1.372900000E-02   9.965337343E+01  -2.988707662E+01  -9.805867629E+01   9.965321138E-05
   1.373000000E-02   9.974932980E+01  -1.498404356E+01  -9.806367057E+01   9.974916381E-05
   1.373100000E-02   9.984848902E+01  -9.981521543E-03  -9.803522399E+01   9.984832126E-05
   1.373200000E-02   9.982329657E+01  -4.189678007E+00  -9.801175989E+01   9.982313381E-05
   1.373300000E-02   9.975511701E+01  -1.488636184E+01  -9.799949442E+01   9.975495164E-05
   1.373400000E-02   9.967347831E+01  -2.749277443E+01  -9.800160026E+01   9.967331223E-05
   1.373500000E-02   9.965709277E+01  -2.988819185E+01  -9.801463818E+01   9.965692851E-05
   1.373600000E-02   9.965617056E+01  -2.988791479E+01  -9.802717271E+01   9.965600854E-05
   1.373700000E-02   9.965524747E+01  -2.988763669E+01  -9.803864424E+01   9.965508000E-05
   1.373800000E-02   9.965431213E+01  -2.988735828E+01  -9.804910378E+01   9.965414890E-05
   1.373900000E-02   9.965337394E+01  -2.988707678E+01  -9.805867120E+01   9.965321189E-05
   1.374000000E-02   9.974970732E+01  -1.492592407E+01  -9.806365901E+01   9.974954131E-05
   1.374100000E-02   9.984848788E+01  -9.981521429E-03  -9.803523894E+01   9.984832012E-05
   1.374200000E-02   9.982329251E+01  -4.190366715E+00  -9.801175750E+01   9.982312975E-05
   1.374300000E-02   9.975508523E+01  -1.489136194E+01  -9.799949121E+01   9.975491986E-05
   1.374400000E-02   9.967352249E+01  -2.748604739E+01  -9.800159475E+01   9.967335640E-05
   1.374500000E-02   9.965709241E+01  -2.988819175E+01  -9.801464334E+01   9.965692815E-05
   1.374600000E-02   9.965617090E+01  -2.988791489E+01  -9.802716816E+01   9.965600888E-05
   1.374700000E-02   9.965524797E+01  -2.988763684E+01  -9.803863814E+01   9.965508050E-05
   1.374800000E-02   9.965431193E+01  -2.988735822E+01  -9.804910600E+01   9.965414870E-05
   1.374900000E-02   9.965337357E+01  -2.988707667E+01  -9.805866866E+01   9.965321152E-05
   1.375000000E-02   9.974963767E+01  -1.493723366E+01  -9.806366126E+01   9.974946785E-05
   1.375100000E-02   9.984848870E+01  -9.981521511E-03  -9.803522819E+01   9.984832094E-05
   1.375200000E-02   9.982330219E+01  -4.188829545E+00  -9.801176320E+01   9.982313943E-05
   1.375300000E-02   9.975512944E+01  -1.488451027E+01  -9.799949567E+01   9.975496407E-05
   1.375400000E-02   9.967349073E+01  -2.749095574E+01  -9.800159871E+01   9.967332464E-05
   1.375500000E-02   9.965709522E+01  -2.988819173E+01  -9.801464389E+01   9.965693267E-05
   1.375600000E-02   9.965617054E+01  -2.988791478E+01  -9.802717298E+01   9.965600988E-05
   1.375700000E-02   9.965524761E+01  -2.988763673E+01  -9.803863632E+01   9.965508014E-05
   1.375800000E-02   9.965431227E+01  -2.988735833E+01  -9.804910079E+01   9.965414904E-05
   1.375900000E-02   9.965338028E+01  -2.988707682E+01  -9.805866356E+01   9.965321203E-05
   1.376000000E-02   9.974956354E+01  -1.494864715E+01  -9.806366353E+01   9.974939371E-05
   1.376100000E-02   9.984848952E+01  -9.981521593E-03  -9.803521458E+01   9.984832175E-05
   1.376200000E-02   9.982328782E+01  -4.191183758E+00  -9.801175475E+01   9.982312507E-05
   1.376300000E-02   9.975509766E+01  -1.488950670E+01  -9.799949247E+01   9.975493228E-05
   1.376400000E-02   9.967353491E+01  -2.748422555E+01  -9.800159320E+01   9.967336882E-05
   1.376500000E-02   9.965709540E+01  -2.988819298E+01  -9.801463655E+01   9.965693285E-05
   1.376600000E-02   9.965617104E+01  -2.988791529E+01  -9.802716485E+01   9.965601038E-05
   1.376700000E-02   9.965524741E+01  -2.988763822E+01  -9.803863875E+01   9.965507994E-05
   1.376800000E-02   9.965431190E+01  -2.988735857E+01  -9.804910480E+01   9.965414868E-05
   1.376900000E-02   9.965337992E+01  -2.988707671E+01  -9.805866723E+01   9.965321167E-05
   1.377000000E-02   9.974948939E+01  -1.496006292E+01  -9.806366580E+01   9.974931957E-05
   1.377100000E-02   9.984848838E+01  -9.981521479E-03  -9.803522953E+01   9.984832062E-05
   1.377200000E-02   9.982330780E+01  -4.187976387E+00  -9.801176650E+01   9.982314505E-05
   1.377300000E-02   9.975508867E+01  -1.489094672E+01  -9.799949156E+01   9.975492330E-05
   1.377400000E-02   9.967350315E+01  -2.748913008E+01  -9.800159716E+01   9.967333706E-05
   1.377500000E-02   9.965709504E+01  -2.988819287E+01  -9.801464170E+01   9.965693249E-05
   1.377600000E-02   9.965617068E+01  -2.988791673E+01  -9.802716967E+01   9.965601002E-05
   1.377700000E-02   9.965524775E+01  -2.988763868E+01  -9.803863461E+01   9.965508028E-05
   1.377800000E-02   9.965431861E+01  -2.988735873E+01  -9.804909923E+01   9.965414918E-05
   1.377900000E-02   9.965338114E+01  -2.988707665E+01  -9.805866925E+01   9.965321146E-05
   1.378000000E-02   9.974941594E+01  -1.497137023E+01  -9.806366805E+01   9.974924612E-05
   1.378100000E-02   9.984848920E+01  -9.981521561E-03  -9.803521878E+01   9.984832144E-05
   1.378200000E-02   9.982329344E+01  -4.190327954E+00  -9.801175805E+01   9.982313068E-05
   1.378300000E-02   9.975511008E+01  -1.488764397E+01  -9.799949372E+01   9.975494471E-05
   1.378400000E-02   9.967347139E+01  -2.749403270E+01  -9.800160113E+01   9.967330530E-05
   1.378500000E-02   9.965709555E+01  -2.988819302E+01  -9.801463453E+01   9.965693299E-05
   1.378600000E-02   9.965617669E+01  -2.988791667E+01  -9.802717234E+01   9.965600982E-05
   1.378700000E-02   9.965524881E+01  -2.988763857E+01  -9.803863899E+01   9.965507992E-05
   1.378800000E-02   9.965431825E+01  -2.988735862E+01  -9.804910323E+01   9.965414882E-05
   1.378900000E-02   9.965338149E+01  -2.988707675E+01  -9.805866579E+01   9.965321181E-05
   1.379000000E-02   9.974979345E+01  -1.491325074E+01  -9.806365649E+01   9.974962362E-05
   1.379100000E-02   9.984848806E+01  -9.981521447E-03  -9.803523373E+01   9.984832030E-05
   1.379200000E-02   9.982328937E+01  -4.191011486E+00  -9.801175566E+01   9.982312662E-05
   1.379300000E-02   9.975507830E+01  -1.489263630E+01  -9.799948517E+01   9.975491293E-05
   1.379400000E-02   9.967351556E+01  -2.748729870E+01  -9.800159561E+01   9.967334948E-05
   1.379500000E-02   9.965709518E+01  -2.988819292E+01  -9.801463969E+01   9.965693263E-05
   1.379600000E-02   9.965617703E+01  -2.988791677E+01  -9.802716779E+01   9.965601016E-05
   1.379700000E-02   9.965524932E+01  -2.988763872E+01  -9.803863289E+01   9.965508043E-05
   1.379800000E-02   9.965431805E+01  -2.988735856E+01  -9.804910545E+01   9.965414862E-05
   1.379900000E-02   9.965338112E+01  -2.988707664E+01  -9.805866945E+01   9.965321144E-05
   1.380000000E-02   9.974926835E+01  -1.499409331E+01  -9.806367257E+01   9.974909853E-05
   1.380100000E-02   9.984848888E+01  -9.981521529E-03  -9.803522298E+01   9.984832112E-05
   1.380200000E-02   9.982329905E+01  -4.189468122E+00  -9.801175602E+01   9.982313630E-05
   1.380300000E-02   9.975512251E+01  -1.488577552E+01  -9.799948734E+01   9.975495714E-05
   1.380400000E-02   9.967348380E+01  -2.749219751E+01  -9.800159462E+01   9.967331772E-05
   1.380500000E-02   9.965710046E+01  -2.988819307E+01  -9.801463251E+01   9.965693313E-05
   1.380600000E-02   9.965617825E+01  -2.988791671E+01  -9.802717045E+01   9.965600996E-05
   1.380700000E-02   9.965524896E+01  -2.988763862E+01  -9.803863728E+01   9.965508006E-05
   1.380800000E-02   9.965431839E+01  -2.988735866E+01  -9.804910167E+01   9.965414896E-05
   1.380900000E-02   9.965338163E+01  -2.988707680E+01  -9.805866436E+01   9.965321195E-05
   1.381000000E-02   9.974964585E+01  -1.493597382E+01  -9.806366101E+01   9.974947603E-05
   1.381100000E-02   9.984848848E+01  -9.981521489E-03  -9.803522829E+01   9.984832071E-05
   1.381200000E-02   9.982329499E+01  -4.190148138E+00  -9.801175363E+01   9.982313224E-05
   1.381300000E-02   9.975509072E+01  -1.489076403E+01  -9.799948414E+01   9.975492535E-05
   1.381400000E-02   9.967352798E+01  -2.748546093E+01  -9.800158911E+01   9.967336189E-05
   1.381500000E-02   9.965710010E+01  -2.988819296E+01  -9.801463767E+01   9.965693277E-05
   1.381600000E-02   9.965617859E+01  -2.988791682E+01  -9.802716590E+01   9.965601030E-05
   1.381700000E-02   9.965524875E+01  -2.988763856E+01  -9.803863971E+01   9.965507986E-05
   1.381800000E-02   9.965431803E+01  -2.988735855E+01  -9.804910567E+01   9.965414860E-05
   1.381900000E-02   9.965338126E+01  -2.988707669E+01  -9.805866802E+01   9.965321159E-05
   1.382000000E-02   9.974957209E+01  -1.494733037E+01  -9.806366327E+01   9.974940227E-05
   1.382100000E-02   9.984848856E+01  -9.981521497E-03  -9.803522719E+01   9.984832080E-05
   1.382200000E-02   9.982330467E+01  -4.188603597E+00  -9.801175932E+01   9.982314191E-05
   1.382300000E-02   9.975508173E+01  -1.489219743E+01  -9.799948323E+01   9.975491636E-05
   1.382400000E-02   9.967349622E+01  -2.749035783E+01  -9.800159307E+01   9.967333014E-05
   1.382500000E-02   9.965709975E+01  -2.988819285E+01  -9.801464283E+01   9.965693241E-05
   1.382600000E-02   9.965617823E+01  -2.988791671E+01  -9.802717072E+01   9.965600994E-05
   1.382700000E-02   9.965524910E+01  -2.988763866E+01  -9.803863557E+01   9.965508020E-05
   1.382800000E-02   9.965431853E+01  -2.988735870E+01  -9.804910010E+01   9.965414911E-05
   1.382900000E-02   9.965338106E+01  -2.988707818E+01  -9.805867005E+01   9.965321138E-05
   1.383000000E-02   9.974949826E+01  -1.495869689E+01  -9.806366553E+01   9.974932844E-05
   1.383100000E-02   9.984848938E+01  -9.981521579E-03  -9.803521644E+01   9.984832161E-05
   1.383200000E-02   9.982329030E+01  -4.190950561E+00  -9.801175087E+01   9.982312755E-05
[...]
   2.478400000E-02   9.990581180E+01  -2.996278469E+01  -9.767438727E+01   5.968526669E+01
   2.478500000E-02   9.990648303E+01  -2.996298491E+01  -9.767450709E+01   5.967636070E+01
   2.478600000E-02   9.990714892E+01  -2.996318647E+01  -9.767448736E+01   5.966754356E+01
   2.478700000E-02   9.990781872E+01  -2.996338753E+01  -9.767434079E+01   5.965880811E+01
   2.478800000E-02   9.990848498E+01  -2.996358652E+01  -9.767408280E+01   5.965017197E+01
   2.478900000E-02   9.990915392E+01  -2.996378618E+01  -9.767372885E+01   5.964163219E+01
   2.479000000E-02   9.995072466E+01  -2.370151204E+01  -9.767168707E+01   5.963481386E+01
   2.479100000E-02   9.992943248E+01  -2.717683480E+01  -9.766257452E+01   5.963576966E+01
   2.479200000E-02   9.991204727E+01  -2.996465578E+01  -9.766148588E+01   5.962902411E+01
   2.479300000E-02   9.991271620E+01  -2.996485601E+01  -9.766173692E+01   5.962092054E+01
   2.479400000E-02   9.991338743E+01  -2.996505623E+01  -9.766183924E+01   5.961290810E+01
   2.479500000E-02   9.991405419E+01  -2.996525671E+01  -9.766180419E+01   5.960498107E+01
   2.479600000E-02   9.991472350E+01  -2.996545705E+01  -9.766164237E+01   5.959715656E+01
   2.479700000E-02   9.991538938E+01  -2.996565727E+01  -9.766136926E+01   5.958943179E+01
   2.479800000E-02   9.991605298E+01  -2.996585616E+01  -9.766100008E+01   5.958180500E+01
   2.479900000E-02   9.991671658E+01  -2.996605581E+01  -9.766054472E+01   5.957427201E+01
   2.480000000E-02   9.995466030E+01  -2.425958549E+01  -9.765855456E+01   5.956831524E+01
   2.480100000E-02   9.993411885E+01  -2.760639811E+01  -9.765042687E+01   5.956915294E+01
   2.480200000E-02   9.991950169E+01  -2.996689135E+01  -9.764936910E+01   5.956318871E+01
   2.480300000E-02   9.992017101E+01  -2.996709035E+01  -9.764944307E+01   5.955609574E+01
   2.480400000E-02   9.992083689E+01  -2.996729000E+01  -9.764938274E+01   5.954910322E+01
   2.480500000E-02   9.992150049E+01  -2.996749022E+01  -9.764920346E+01   5.954220870E+01
   2.480600000E-02   9.992216408E+01  -2.996768911E+01  -9.764891513E+01   5.953541332E+01
   2.480700000E-02   9.992282768E+01  -2.996788876E+01  -9.764853072E+01   5.952871439E+01
   2.480800000E-02   9.992349128E+01  -2.996808765E+01  -9.764806014E+01   5.952211346E+01
   2.480900000E-02   9.992415488E+01  -2.996828597E+01  -9.764751100E+01   5.951561166E+01
   2.481000000E-02   9.995818908E+01  -2.485987362E+01  -9.764559238E+01   5.951053201E+01
   2.481100000E-02   9.992606568E+01  -2.996885927E+01  -9.763870239E+01   5.951099074E+01
   2.481200000E-02   9.992672985E+01  -2.996905830E+01  -9.763861185E+01   5.950483505E+01
   2.481300000E-02   9.992739511E+01  -2.996925655E+01  -9.763841138E+01   5.949877043E+01
   2.481400000E-02   9.992805375E+01  -2.996945611E+01  -9.763810555E+01   5.949280279E+01
   2.481500000E-02   9.992871468E+01  -2.996965509E+01  -9.763770781E+01   5.948693295E+01
   2.481600000E-02   9.992937828E+01  -2.996985341E+01  -9.763722620E+01   5.948116224E+01
   2.481700000E-02   9.993004268E+01  -2.997005072E+01  -9.763666494E+01   5.947548384E+01
   2.481800000E-02   9.993070174E+01  -2.997024850E+01  -9.763603753E+01   5.946990791E+01
   2.481900000E-02   9.993135771E+01  -2.997044682E+01  -9.763534950E+01   5.946443479E+01
   2.482000000E-02   9.996191868E+01  -2.539340332E+01  -9.763344110E+01   5.946024939E+01
   2.482100000E-02   9.993401399E+01  -2.984017232E+01  -9.762758644E+01   5.946050922E+01
   2.482200000E-02   9.993382236E+01  -2.997118560E+01  -9.762725843E+01   5.945539687E+01
   2.482300000E-02   9.993448595E+01  -2.997138392E+01  -9.762687708E+01   5.945035120E+01
   2.482400000E-02   9.993514193E+01  -2.997158224E+01  -9.762640423E+01   5.944540467E+01
   2.482500000E-02   9.993579913E+01  -2.997177901E+01  -9.762585404E+01   5.944054449E+01
   2.482600000E-02   9.993646272E+01  -2.997197542E+01  -9.762523618E+01   5.943579257E+01
   2.482700000E-02   9.993711869E+01  -2.997217374E+01  -9.762455731E+01   5.943113978E+01
   2.482800000E-02   9.993777466E+01  -2.997237015E+01  -9.762381744E+01   5.942658231E+01
   2.482900000E-02   9.993843063E+01  -2.997256656E+01  -9.762303943E+01   5.942212400E+01
   2.483000000E-02   9.996555215E+01  -2.592067715E+01  -9.762116874E+01   5.941881654E+01
   2.483100000E-02   9.994747366E+01  -2.885243257E+01  -9.761571959E+01   5.941955415E+01
   2.483200000E-02   9.994088847E+01  -2.997330288E+01  -9.761455336E+01   5.941620609E+01
   2.483300000E-02   9.994153996E+01  -2.997349955E+01  -9.761412035E+01   5.941216007E+01
   2.483400000E-02   9.994219401E+01  -2.997369607E+01  -9.761360899E+01   5.940821523E+01
   2.483500000E-02   9.994284998E+01  -2.997389248E+01  -9.761302697E+01   5.940436641E+01
   2.483600000E-02   9.994350060E+01  -2.997408889E+01  -9.761238166E+01   5.940061177E+01
   2.483700000E-02   9.994415429E+01  -2.997428396E+01  -9.761167534E+01   5.939695245E+01
   2.483800000E-02   9.994480492E+01  -2.997447980E+01  -9.761091870E+01   5.939338579E+01
   2.483900000E-02   9.994545860E+01  -2.997467487E+01  -9.761011630E+01   5.938991597E+01
   2.484000000E-02   9.996892490E+01  -2.648184602E+01  -9.760838021E+01   5.938743923E+01
   2.484100000E-02   9.994705942E+01  -2.997515386E+01  -9.760458774E+01   5.938738737E+01
   2.484200000E-02   9.994770837E+01  -2.997534950E+01  -9.760400367E+01   5.938421137E+01
   2.484300000E-02   9.994835671E+01  -2.997554400E+01  -9.760335532E+01   5.938112985E+01
   2.484400000E-02   9.994900505E+01  -2.997573850E+01  -9.760265358E+01   5.937814366E+01
   2.484500000E-02   9.994965339E+01  -2.997593301E+01  -9.760189084E+01   5.937524899E+01
   2.484600000E-02   9.995030174E+01  -2.997612751E+01  -9.760108996E+01   5.937244201E+01
   2.484700000E-02   9.995095008E+01  -2.997632201E+01  -9.760025095E+01   5.936972655E+01
   2.484800000E-02   9.995159080E+01  -2.997651461E+01  -9.759936619E+01   5.936710259E+01
   2.484900000E-02   9.995224034E+01  -2.997670947E+01  -9.759845682E+01   5.936456165E+01
   2.485000000E-02   9.997239097E+01  -2.699043574E+01  -9.759674957E+01   5.936289759E+01
   2.485100000E-02   9.995597663E+01  -2.964413336E+01  -9.759298171E+01   5.936361279E+01
   2.485200000E-02   9.995448685E+01  -2.997738209E+01  -9.759186401E+01   5.936181982E+01
   2.485300000E-02   9.995512986E+01  -2.997757469E+01  -9.759116533E+01   5.935965778E+01
   2.485400000E-02   9.995577057E+01  -2.997776862E+01  -9.759041631E+01   5.935758344E+01
   2.485500000E-02   9.995641129E+01  -2.997796178E+01  -9.758962155E+01   5.935559146E+01
   2.485600000E-02   9.995705734E+01  -2.997815305E+01  -9.758879169E+01   5.935368755E+01
   2.485700000E-02   9.995770118E+01  -2.997834532E+01  -9.758791952E+01   5.935186481E+01
   2.485800000E-02   9.995834226E+01  -2.997853802E+01  -9.758701285E+01   5.935012897E+01
   2.485900000E-02   9.995897763E+01  -2.997873062E+01  -9.758608152E+01   5.934847648E+01
   2.486000000E-02   9.997566601E+01  -2.752246998E+01  -9.758449345E+01   5.934754256E+01
   2.486100000E-02   9.996044047E+01  -2.997916788E+01  -9.758181786E+01   5.934795599E+01
   2.486200000E-02   9.996107748E+01  -2.997935989E+01  -9.758101374E+01   5.934656431E+01
   2.486300000E-02   9.996171815E+01  -2.997955059E+01  -9.758017591E+01   5.934525307E+01
   2.486400000E-02   9.996235157E+01  -2.997974128E+01  -9.757929312E+01   5.934401787E+01
   2.486500000E-02   9.996299195E+01  -2.997993379E+01  -9.757838645E+01   5.934286623E+01
   2.486600000E-02   9.996362538E+01  -2.998012457E+01  -9.757744961E+01   5.934179483E+01
   2.486700000E-02   9.996425847E+01  -2.998031343E+01  -9.757648955E+01   5.934079985E+01
   2.486800000E-02   9.996489268E+01  -2.998050438E+01  -9.757550487E+01   5.933987949E+01
   2.486900000E-02   9.996553312E+01  -2.998069508E+01  -9.757449894E+01   5.933904075E+01
   2.487000000E-02   9.997899680E+01  -2.801637642E+01  -9.757297424E+01   5.933878775E+01
   2.487100000E-02   9.996692945E+01  -2.998111499E+01  -9.757072732E+01   5.933946775E+01
   2.487200000E-02   9.996756064E+01  -2.998130430E+01  -9.756982091E+01   5.933886642E+01
   2.487300000E-02   9.996819372E+01  -2.998149432E+01  -9.756888995E+01   5.933833501E+01
   2.487400000E-02   9.996882681E+01  -2.998168310E+01  -9.756793612E+01   5.933787738E+01
   2.487500000E-02   9.996945723E+01  -2.998187189E+01  -9.756695941E+01   5.933749333E+01
   2.487600000E-02   9.997008536E+01  -2.998206067E+01  -9.756595982E+01   5.933717926E+01
   2.487700000E-02   9.997071578E+01  -2.998224945E+01  -9.756494269E+01   5.933693762E+01
   2.487800000E-02   9.997134124E+01  -2.998243823E+01  -9.756391260E+01   5.933676577E+01
   2.487900000E-02   9.997196670E+01  -2.998262635E+01  -9.756286496E+01   5.933666140E+01
   2.488000000E-02   9.998215518E+01  -2.851925870E+01  -9.756143377E+01   5.933700602E+01
   2.488100000E-02   9.997333245E+01  -2.998303486E+01  -9.755932706E+01   5.933820105E+01
   2.488200000E-02   9.997395645E+01  -2.998322224E+01  -9.755837073E+01   5.933831333E+01
   2.488300000E-02   9.997458191E+01  -2.998341046E+01  -9.755739364E+01   5.933848839E+01
   2.488400000E-02   9.997520737E+01  -2.998359790E+01  -9.755639367E+01   5.933873094E+01
   2.488500000E-02   9.997583283E+01  -2.998378478E+01  -9.755538149E+01   5.933903679E+01
   2.488600000E-02   9.997645829E+01  -2.998397165E+01  -9.755435102E+01   5.933940631E+01
   2.488700000E-02   9.997707842E+01  -2.998415853E+01  -9.755330834E+01   5.933983798E+01
   2.488800000E-02   9.997770240E+01  -2.998434565E+01  -9.755225666E+01   5.934033399E+01
   2.488900000E-02   9.997832286E+01  -2.998453129E+01  -9.755119278E+01   5.934089189E+01
   2.489000000E-02   9.998537060E+01  -2.900082306E+01  -9.754986572E+01   5.934176254E+01
   2.489100000E-02   9.997963442E+01  -2.998492579E+01  -9.754808785E+01   5.934321801E+01
   2.489200000E-02   9.998025266E+01  -2.998511099E+01  -9.754708053E+01   5.934396340E+01
   2.489300000E-02   9.998087049E+01  -2.998529596E+01  -9.754605539E+01   5.934476351E+01
   2.489400000E-02   9.998148832E+01  -2.998548226E+01  -9.754502034E+01   5.934562234E+01
   2.489500000E-02   9.998210615E+01  -2.998566780E+01  -9.754397232E+01   5.934653683E+01
   2.489600000E-02   9.998272479E+01  -2.998585301E+01  -9.754291301E+01   5.934750867E+01
   2.489700000E-02   9.998334297E+01  -2.998603675E+01  -9.754184684E+01   5.934853439E+01
   2.489800000E-02   9.998396080E+01  -2.998622115E+01  -9.754077364E+01   5.934961294E+01
   2.489900000E-02   9.998457329E+01  -2.998640611E+01  -9.753969281E+01   5.935074488E+01
   2.490000000E-02   9.998850803E+01  -2.947820340E+01  -9.753847028E+01   5.935206131E+01
   2.490100000E-02   9.998582626E+01  -2.998678002E+01  -9.753721898E+01   5.935348332E+01
   2.490200000E-02   9.998643711E+01  -2.998696545E+01  -9.753614631E+01   5.935477879E+01
   2.490300000E-02   9.998704732E+01  -2.998714851E+01  -9.753506320E+01   5.935612082E+01
   2.490400000E-02   9.998765752E+01  -2.998733157E+01  -9.753397641E+01   5.935750953E+01
   2.490500000E-02   9.998826773E+01  -2.998751463E+01  -9.753287988E+01   5.935894688E+01
   2.490600000E-02   9.998887793E+01  -2.998769770E+01  -9.753178547E+01   5.936043091E+01
   2.490700000E-02   9.998948814E+01  -2.998788076E+01  -9.753068131E+01   5.936196267E+01
   2.490800000E-02   9.999009861E+01  -2.998806344E+01  -9.752958061E+01   5.936353893E+01
   2.490900000E-02   9.999070968E+01  -2.998824531E+01  -9.752847121E+01   5.936516456E+01
   2.491000000E-02   9.999520146E+01  -2.939214840E+01  -9.752729664E+01   5.936688942E+01
   2.491100000E-02   9.999194446E+01  -2.998861503E+01  -9.752601253E+01   5.936879048E+01
   2.491200000E-02   9.999254716E+01  -2.998879806E+01  -9.752492184E+01   5.937054442E+01
   2.491300000E-02   9.999314973E+01  -2.998897923E+01  -9.752382355E+01   5.937234026E+01
   2.491400000E-02   9.999375985E+01  -2.998916039E+01  -9.752271764E+01   5.937417803E+01
   2.491500000E-02   9.999436363E+01  -2.998934188E+01  -9.752160961E+01   5.937605744E+01
   2.491600000E-02   9.999496622E+01  -2.998952303E+01  -9.752050359E+01   5.937797162E+01
   2.491700000E-02   9.999556879E+01  -2.998970419E+01  -9.751939759E+01   5.937992390E+01
   2.491800000E-02   9.999617137E+01  -2.998988534E+01  -9.751829160E+01   5.938191807E+01
   2.491900000E-02   9.999677395E+01  -2.999006650E+01  -9.751717805E+01   5.938394287E+01
   2.492000000E-02   9.999737563E+01  -2.999024682E+01  -9.751606343E+01   5.938600971E+01
   2.492100000E-02   9.999798093E+01  -2.999042602E+01  -9.751495292E+01   5.938811014E+01
   2.492200000E-02   9.999857785E+01  -2.999060592E+01  -9.751383826E+01   5.939024493E+01
   2.492300000E-02   9.999917813E+01  -2.999078650E+01  -9.751272464E+01   5.939241230E+01
   2.492400000E-02   9.999977538E+01  -2.999096632E+01  -9.751161101E+01   5.939461131E+01
   2.492500000E-02   1.000003757E+02  -2.999114557E+01  -9.751049739E+01   5.939684083E+01
   2.492600000E-02   1.000009729E+02  -2.999132481E+01  -9.750937843E+01   5.939910085E+01
   2.492700000E-02   1.000015686E+02  -2.999150430E+01  -9.750826106E+01   5.940139704E+01
   2.492800000E-02   1.000021693E+02  -2.999168364E+01  -9.750714681E+01   5.940371788E+01
   2.492900000E-02   1.000027665E+02  -2.999186156E+01  -9.750603319E+01   5.940606833E+01
   2.493000000E-02   1.000033606E+02  -2.999203963E+01  -9.750491748E+01   5.940844272E+01
   2.493100000E-02   1.000039548E+02  -2.999221848E+01  -9.750380620E+01   5.941084986E+01
   2.493200000E-02   1.000045513E+02  -2.999239682E+01  -9.750269232E+01   5.941328017E+01
   2.493300000E-02   1.000051410E+02  -2.999257473E+01  -9.750157869E+01   5.941573585E+01
   2.493400000E-02   1.000057344E+02  -2.999275231E+01  -9.750046362E+01   5.941821879E+01
   2.493500000E-02   1.000063297E+02  -2.999293108E+01  -9.749935472E+01   5.942072279E+01
   2.493600000E-02   1.000069193E+02  -2.999310899E+01  -9.749824338E+01   5.942324829E+01
   2.493700000E-02   1.000075119E+02  -2.999328633E+01  -9.749712975E+01   5.942579666E+01
   2.493800000E-02   1.000081015E+02  -2.999346368E+01  -9.749602147E+01   5.942836791E+01
   2.493900000E-02   1.000086942E+02  -2.999363968E+01  -9.749491547E+01   5.943095937E+01
   2.494000000E-02   1.000092850E+02  -2.999381734E+01  -9.749380102E+01   5.943356918E+01
   2.494100000E-02   1.000098702E+02  -2.999399413E+01  -9.749269554E+01   5.943619993E+01
   2.494200000E-02   1.000104592E+02  -2.999417003E+01  -9.749158841E+01   5.943885160E+01
   2.494300000E-02   1.000110469E+02  -2.999434689E+01  -9.749048180E+01   5.944151816E+01
   2.494400000E-02   1.000116342E+02  -2.999452290E+01  -9.748938114E+01   5.944420116E+01
   2.494500000E-02   1.000122215E+02  -2.999469833E+01  -9.748827744E+01   5.944690056E+01
   2.494600000E-02   1.000128088E+02  -2.999487510E+01  -9.748717144E+01   5.944961254E+01
   2.494700000E-02   1.000133962E+02  -2.999505111E+01  -9.748607078E+01   5.945234129E+01
   2.494800000E-02   1.000139835E+02  -2.999522654E+01  -9.748497241E+01   5.945508377E+01
   2.494900000E-02   1.000145655E+02  -2.999540198E+01  -9.748386871E+01   5.945784036E+01
   2.495000000E-02   1.000151517E+02  -2.999557678E+01  -9.748276952E+01   5.946060816E+01
   2.495100000E-02   1.000157375E+02  -2.999575162E+01  -9.748167038E+01   5.946339035E+01
   2.495200000E-02   1.000163209E+02  -2.999592670E+01  -9.748057460E+01   5.946618359E+01
   2.495300000E-02   1.000169006E+02  -2.999610213E+01  -9.747947852E+01   5.946898443E+01
   2.495400000E-02   1.000174856E+02  -2.999627623E+01  -9.747838015E+01   5.947179557E+01
   2.495500000E-02   1.000180676E+02  -2.999645109E+01  -9.747728712E+01   5.947461547E+01
   2.495600000E-02   1.000186473E+02  -2.999662519E+01  -9.747619105E+01   5.947744301E+01
   2.495700000E-02   1.000192270E+02  -2.999680005E+01  -9.747509801E+01   5.948027816E+01
   2.495800000E-02   1.000198075E+02  -2.999697438E+01  -9.747400585E+01   5.948312466E+01
   2.495900000E-02   1.000203875E+02  -2.999714800E+01  -9.747291450E+01   5.948597667E+01
   2.496000000E-02   1.000209694E+02  -2.999732207E+01  -9.747182472E+01   5.948883037E+01
   2.496100000E-02   1.000215465E+02  -2.999749496E+01  -9.747073442E+01   5.949169061E+01
   2.496200000E-02   1.000221266E+02  -2.999766858E+01  -9.746964761E+01   5.949455424E+01
   2.496300000E-02   1.000227063E+02  -2.999784211E+01  -9.746855916E+01   5.949742106E+01
   2.496400000E-02   1.000232806E+02  -2.999801564E+01  -9.746747375E+01   5.950029169E+01
   2.496500000E-02   1.000238588E+02  -2.999818806E+01  -9.746638923E+01   5.950316721E+01
   2.496600000E-02   1.000244334E+02  -2.999836111E+01  -9.746530016E+01   5.950604327E+01
   2.496700000E-02   1.000250109E+02  -2.999853464E+01  -9.746421477E+01   5.950891886E+01
   2.496800000E-02   1.000255852E+02  -2.999870683E+01  -9.746313165E+01   5.951179445E+01
   2.496900000E-02   1.000261626E+02  -2.999887845E+01  -9.746205388E+01   5.951467004E+01
   2.497000000E-02   1.000267374E+02  -2.999905210E+01  -9.746097148E+01   5.951754663E+01
   2.497100000E-02   1.000273092E+02  -2.999922364E+01  -9.745989078E+01   5.952041993E+01
   2.497200000E-02   1.000278864E+02  -2.999939522E+01  -9.745881216E+01   5.952329033E+01
   2.497300000E-02   1.000284615E+02  -2.999956706E+01  -9.745773527E+01   5.952616585E+01
   2.497400000E-02   1.000290339E+02  -2.999974011E+01  -9.745665384E+01   5.952903388E+01
   2.497500000E-02   1.000296060E+02  -2.999991230E+01  -9.745557607E+01   5.953189536E+01
   2.497600000E-02   1.000301781E+02  -3.000008259E+01  -9.745450058E+01   5.953475570E+01
   2.497700000E-02   1.000307501E+02  -3.000025364E+01  -9.745342510E+01   5.953761069E+01
   2.497800000E-02   1.000313222E+02  -3.000042526E+01  -9.745234961E+01   5.954046073E+01
   2.497900000E-02   1.000318889E+02  -3.000059688E+01  -9.745127946E+01   5.954330429E+01
   2.498000000E-02   1.000324591E+02  -3.000076862E+01  -9.745020318E+01   5.954614195E+01
   2.498100000E-02   1.000330316E+02  -3.000093917E+01  -9.744912980E+01   5.954897614E+01
   2.498200000E-02   1.000336039E+02  -3.000111015E+01  -9.744805864E+01   5.955179828E+01
   2.498300000E-02   1.000341706E+02  -3.000128043E+01  -9.744699078E+01   5.955461399E+01
   2.498400000E-02   1.000347404E+02  -3.000145148E+01  -9.744592292E+01   5.955742322E+01
   2.498500000E-02   1.000353071E+02  -3.000162177E+01  -9.744484972E+01   5.956022215E+01
   2.498600000E-02   1.000358769E+02  -3.000179148E+01  -9.744377957E+01   5.956300965E+01
   2.498700000E-02   1.000364436E+02  -3.000196253E+01  -9.744271172E+01   5.956578838E+01
   2.498800000E-02   1.000370081E+02  -3.000213281E+01  -9.744164919E+01   5.956855948E+01
   2.498900000E-02   1.000375786E+02  -3.000230275E+01  -9.744058224E+01   5.957132121E+01
   2.499000000E-02   1.000381433E+02  -3.000247195E+01  -9.743951398E+01   5.957407044E+01
   2.499100000E-02   1.000387104E+02  -3.000264234E+01  -9.743845114E+01   5.957680476E+01
   2.499200000E-02   1.000392745E+02  -3.000281198E+01  -9.743738569E+01   5.957953152E+01
   2.499300000E-02   1.000398390E+02  -3.000298170E+01  -9.743632317E+01   5.958224388E+01
   2.499400000E-02   1.000404034E+02  -3.000315141E+01  -9.743526294E+01   5.958494366E+01
   2.499500000E-02   1.000409678E+02  -3.000332112E+01  -9.743420271E+01   5.958762934E+01
   2.499600000E-02   1.000415330E+02  -3.000348972E+01  -9.743314110E+01   5.959030324E+01
   2.499700000E-02   1.000420978E+02  -3.000365896E+01  -9.743208027E+01   5.959296254E+01
   2.499800000E-02   1.000426622E+02  -3.000382867E+01  -9.743102004E+01   5.959560892E+01
   2.499900000E-02   1.000432267E+02  -3.000399705E+01  -9.742995981E+01   5.959823852E+01
   2.500000000E-02   1.000437925E+02  -3.000416559E+01  -9.742890205E+01   5.960085199E+01
   2.500000037E-02   1.000437927E+02  -3.000416565E+01  -9.742890167E+01   5.960085297E+01




          JOB CONCLUDED

          TOTAL JOB TIME            5.92
